

        *** GPGPU-Sim Simulator Version 3.2.2  [build 0] ***


GPGPU-Sim PTX: simulation mode 0 (can change with PTX_SIM_MODE_FUNC environment variable:
               1=functional simulation only, 0=detailed performance simulator)
GPGPU-Sim: Configuration options:

-network_mode                           1 # Interconnection network mode
-inter_config_file   config_fermi_islip.icnt # Interconnection network config file
-gpgpu_ptx_use_cuobjdump                    1 # Use cuobjdump to extract ptx and sass from binaries
-gpgpu_experimental_lib_support                    0 # Try to extract code from cuda libraries [Broken because of unknown cudaGetExportTable]
-gpgpu_ptx_convert_to_ptxplus                    0 # Convert SASS (native ISA) to ptxplus and run ptxplus
-gpgpu_ptx_force_max_capability                   20 # Force maximum compute capability
-gpgpu_ptx_inst_debug_to_file                    0 # Dump executed instructions' debug information to file
-gpgpu_ptx_inst_debug_file       inst_debug.txt # Executed instructions' debug output file
-gpgpu_ptx_inst_debug_thread_uid                    1 # Thread UID for executed instructions' debug output
-gpgpu_simd_model                       1 # 1 = post-dominator
-gpgpu_shader_core_pipeline              1536:32 # shader core pipeline config, i.e., {<nthread>:<warpsize>}
-gpgpu_tex_cache:l1  4:128:24,L:R:m:N:L,F:128:4,128:2 # per-shader L1 texture cache  (READ-ONLY) config  {<nsets>:<bsize>:<assoc>,<rep>:<wr>:<alloc>:<wr_alloc>,<mshr>:<N>:<merge>,<mq>:<rf>}
-gpgpu_const_cache:l1 64:64:2,L:R:f:N:L,A:2:32,4 # per-shader L1 constant memory cache  (READ-ONLY) config  {<nsets>:<bsize>:<assoc>,<rep>:<wr>:<alloc>:<wr_alloc>,<mshr>:<N>:<merge>,<mq>} 
-gpgpu_cache:il1     4:128:4,L:R:f:N:L,A:2:32,4 # shader L1 instruction cache config  {<nsets>:<bsize>:<assoc>,<rep>:<wr>:<alloc>:<wr_alloc>,<mshr>:<N>:<merge>,<mq>} 
-gpgpu_cache:dl1     32:128:4,L:L:m:N:H,A:32:8,8 # per-shader L1 data cache config  {<nsets>:<bsize>:<assoc>,<rep>:<wr>:<alloc>:<wr_alloc>,<mshr>:<N>:<merge>,<mq> | none}
-gpgpu_cache:dl1PrefL1                 none # per-shader L1 data cache config  {<nsets>:<bsize>:<assoc>,<rep>:<wr>:<alloc>:<wr_alloc>,<mshr>:<N>:<merge>,<mq> | none}
-gpgpu_cache:dl1PreShared                 none # per-shader L1 data cache config  {<nsets>:<bsize>:<assoc>,<rep>:<wr>:<alloc>:<wr_alloc>,<mshr>:<N>:<merge>,<mq> | none}
-gmem_skip_L1D                          0 # global memory access skip L1D cache (implements -Xptxas -dlcm=cg, default=no skip)
-gpgpu_perfect_mem                      0 # enable perfect memory mode (no cache miss)
-n_regfile_gating_group                    4 # group of lanes that should be read/written together)
-gpgpu_clock_gated_reg_file                    0 # enable clock gated reg file for power calculations
-gpgpu_clock_gated_lanes                    0 # enable clock gated lanes for power calculations
-gpgpu_shader_registers                32768 # Number of registers per shader core. Limits number of concurrent CTAs. (default 8192)
-gpgpu_shader_cta                       8 # Maximum number of concurrent CTAs in shader (default 8)
-gpgpu_num_cta_barriers                   16 # Maximum number of named barriers per CTA (default 16)
-gpgpu_n_clusters                      68 # number of processing clusters
-gpgpu_n_cores_per_cluster                    1 # number of simd cores per cluster
-gpgpu_n_cluster_ejection_buffer_size                    8 # number of packets in ejection buffer
-gpgpu_n_ldst_response_buffer_size                    2 # number of response packets in ld/st unit ejection buffer
-gpgpu_shmem_size                   16384 # Size of shared memory per shader core (default 16kB)
-gpgpu_shmem_size                   49152 # Size of shared memory per shader core (default 16kB)
-gpgpu_shmem_size_PrefL1                16384 # Size of shared memory per shader core (default 16kB)
-gpgpu_shmem_size_PrefShared                16384 # Size of shared memory per shader core (default 16kB)
-gpgpu_shmem_num_banks                   32 # Number of banks in the shared memory in each shader core (default 16)
-gpgpu_shmem_limited_broadcast                    0 # Limit shared memory to do one broadcast per cycle (default on)
-gpgpu_shmem_warp_parts                    1 # Number of portions a warp is divided into for shared memory bank conflict check 
-gpgpu_warpdistro_shader                   -1 # Specify which shader core to collect the warp size distribution from
-gpgpu_warp_issue_shader                    0 # Specify which shader core to collect the warp issue distribution from
-gpgpu_local_mem_map                    1 # Mapping from local memory space address to simulated GPU physical address space (default = enabled)
-gpgpu_num_reg_banks                   16 # Number of register banks (default = 8)
-gpgpu_reg_bank_use_warp_id                    0 # Use warp ID in mapping registers to banks (default = off)
-gpgpu_operand_collector_num_units_sp                    6 # number of collector units (default = 4)
-gpgpu_operand_collector_num_units_sfu                    8 # number of collector units (default = 4)
-gpgpu_operand_collector_num_units_mem                    2 # number of collector units (default = 2)
-gpgpu_operand_collector_num_units_gen                    0 # number of collector units (default = 0)
-gpgpu_operand_collector_num_in_ports_sp                    2 # number of collector unit in ports (default = 1)
-gpgpu_operand_collector_num_in_ports_sfu                    1 # number of collector unit in ports (default = 1)
-gpgpu_operand_collector_num_in_ports_mem                    1 # number of collector unit in ports (default = 1)
-gpgpu_operand_collector_num_in_ports_gen                    0 # number of collector unit in ports (default = 0)
-gpgpu_operand_collector_num_out_ports_sp                    2 # number of collector unit in ports (default = 1)
-gpgpu_operand_collector_num_out_ports_sfu                    1 # number of collector unit in ports (default = 1)
-gpgpu_operand_collector_num_out_ports_mem                    1 # number of collector unit in ports (default = 1)
-gpgpu_operand_collector_num_out_ports_gen                    0 # number of collector unit in ports (default = 0)
-gpgpu_coalesce_arch                   13 # Coalescing arch (default = 13, anything else is off for now)
-gpgpu_num_sched_per_core                    2 # Number of warp schedulers per core
-gpgpu_max_insn_issue_per_warp                    1 # Max number of instructions that can be issued per warp in one cycle by scheduler
-gpgpu_simt_core_sim_order                    1 # Select the simulation order of cores in a cluster (0=Fix, 1=Round-Robin)
-gpgpu_pipeline_widths        2,1,1,2,1,1,2 # Pipeline widths ID_OC_SP,ID_OC_SFU,ID_OC_MEM,OC_EX_SP,OC_EX_SFU,OC_EX_MEM,EX_WB
-gpgpu_num_sp_units                     2 # Number of SP units (default=1)
-gpgpu_num_sfu_units                    1 # Number of SF units (default=1)
-gpgpu_num_mem_units                    1 # Number if ldst units (default=1) WARNING: not hooked up to anything
-gpgpu_scheduler                      gto # Scheduler configuration: < lrr | gto | two_level_active > If two_level_active:<num_active_warps>:<inner_prioritization>:<outer_prioritization>For complete list of prioritization values see shader.h enum scheduler_prioritization_typeDefault: gto
-gpgpu_dram_scheduler                    1 # 0 = fifo, 1 = FR-FCFS (defaul)
-gpgpu_dram_partition_queues              8:8:8:8 # i2$:$2d:d2$:$2i
-l2_ideal                               0 # Use a ideal L2 cache that always hit
-gpgpu_cache:dl2     64:128:8,L:B:m:W:L,A:32:4,4:0,32 # unified banked L2 data cache config  {<nsets>:<bsize>:<assoc>,<rep>:<wr>:<alloc>:<wr_alloc>,<mshr>:<N>:<merge>,<mq>}
-gpgpu_cache:dl2_texture_only                    0 # L2 cache used for texture only
-gpgpu_n_mem                           16 # number of memory modules (e.g. memory controllers) in gpu
-gpgpu_n_sub_partition_per_mchannel                    2 # number of memory subpartition in each memory module
-gpgpu_n_mem_per_ctrlr                    2 # number of memory chips per memory controller
-gpgpu_memlatency_stat                   14 # track and display latency statistics 0x2 enables MC, 0x4 enables queue logs
-gpgpu_frfcfs_dram_sched_queue_size                   16 # 0 = unlimited (default); # entries per chip
-gpgpu_dram_return_queue_size                  116 # 0 = unlimited (default); # entries per chip
-gpgpu_dram_buswidth                    4 # default = 4 bytes (8 bytes per cycle at DDR)
-gpgpu_dram_burst_length                    8 # Burst length of each DRAM request (default = 4 data bus cycle)
-dram_data_command_freq_ratio                    4 # Frequency ratio between DRAM data bus and command bus (default = 2 times, i.e. DDR)
-gpgpu_dram_timing_opt nbk=16:CCD=2:RRD=6:RCD=12:RAS=28:RP=12:RC=40: CL=12:WL=4:CDLR=5:WR=12:nbkgrp=4:CCDL=3:RTPL=2 # DRAM timing parameters = {nbk:tCCD:tRRD:tRCD:tRAS:tRP:tRC:CL:WL:tCDLR:tWR:nbkgrp:tCCDL:tRTPL}
-rop_latency                          120 # ROP queue latency (default 85)
-dram_latency                         100 # DRAM latency (default 30)
-gpgpu_mem_addr_mapping dramid@8;00000000.00000000.00000000.00000000.0000RRRR.RRRRRRRR.BBBCCCCB.CCSSSSSS # mapping memory address to dram model {dramid@<start bit>;<memory address map>}
-gpgpu_mem_addr_test                    0 # run sweep test to check address mapping for aliased address
-gpgpu_mem_address_mask                    1 # 0 = old addressing mask, 1 = new addressing mask, 2 = new add. mask + flipped bank sel and chip sel bits
-gpuwattch_xml_file  gpuwattch_gtx480.xml # GPUWattch XML file
-power_simulation_enabled                    1 # Turn on power simulator (1=On, 0=Off)
-power_per_cycle_dump                    0 # Dump detailed power output each cycle
-power_trace_enabled                    0 # produce a file for the power trace (1=On, 0=Off)
-power_trace_zlevel                     6 # Compression level of the power trace output log (0=no comp, 9=highest)
-steady_power_levels_enabled                    0 # produce a file for the steady power levels (1=On, 0=Off)
-steady_state_definition                  8:4 # allowed deviation:number of samples
-gpgpu_max_cycle                        0 # terminates gpu simulation early (0 = no limit)
-gpgpu_max_insn                         0 # terminates gpu simulation early (0 = no limit)
-gpgpu_max_cta                          0 # terminates gpu simulation early (0 = no limit)
-gpgpu_runtime_stat                   500 # display runtime statistics such as dram utilization {<freq>:<flag>}
-liveness_message_freq                    1 # Minimum number of seconds between simulation liveness messages (0 = always print)
-gpgpu_flush_l1_cache                    0 # Flush L1 cache at the end of each kernel call
-gpgpu_flush_l2_cache                    0 # Flush L2 cache at the end of each kernel call
-gpgpu_deadlock_detect                    1 # Stop the simulation at deadlock (1=on (default), 0=off)
-gpgpu_ptx_instruction_classification                    0 # if enabled will classify ptx instruction types per kernel (Max 255 kernels now)
-gpgpu_ptx_sim_mode                     0 # Select between Performance (default) or Functional simulation (1)
-gpgpu_clock_domains 700.0:700.0:700.0:924.0 # Clock Domain Frequencies in MhZ {<Core Clock>:<ICNT Clock>:<L2 Clock>:<DRAM Clock>}
-gpgpu_max_concurrent_kernel                    8 # maximum kernels that can run concurrently on GPU
-gpgpu_cflog_interval                    0 # Interval between each snapshot in control flow logger
-visualizer_enabled                     0 # Turn on visualizer output (1=On, 0=Off)
-visualizer_outputfile                 NULL # Specifies the output log file for visualizer
-visualizer_zlevel                      6 # Compression level of the visualizer output log (0=no comp, 9=highest)
-trace_enabled                          0 # Turn on traces
-trace_components                    none # comma seperated list of traces to enable. Complete list found in trace_streams.tup. Default none
-trace_sampling_core                    0 # The core which is printed using CORE_DPRINTF. Default 0
-trace_sampling_memory_partition                   -1 # The memory partition which is printed using MEMPART_DPRINTF. Default -1 (i.e. all)
-enable_ptx_file_line_stats                    1 # Turn on PTX source line statistic profiling. (1 = On)
-ptx_line_stats_filename gpgpu_inst_stats.txt # Output file for PTX source line statistics.
-save_embedded_ptx                      0 # saves ptx files embedded in binary as <n>.ptx
-keep                                   0 # keep intermediate files created by GPGPU-Sim when interfacing with external programs
-gpgpu_ptx_save_converted_ptxplus                    0 # Saved converted ptxplus to a file
-ptx_opcode_latency_int         4,13,4,5,145 # Opcode latencies for integers <ADD,MAX,MUL,MAD,DIV>Default 1,1,19,25,145
-ptx_opcode_latency_fp          4,13,4,5,39 # Opcode latencies for single precision floating points <ADD,MAX,MUL,MAD,DIV>Default 1,1,1,1,30
-ptx_opcode_latency_dp         8,19,8,8,330 # Opcode latencies for double precision floating points <ADD,MAX,MUL,MAD,DIV>Default 8,8,8,8,335
-ptx_opcode_initiation_int            1,2,2,1,8 # Opcode initiation intervals for integers <ADD,MAX,MUL,MAD,DIV>Default 1,1,4,4,32
-ptx_opcode_initiation_fp            1,2,1,1,4 # Opcode initiation intervals for single precision floating points <ADD,MAX,MUL,MAD,DIV>Default 1,1,1,1,5
-ptx_opcode_initiation_dp         8,16,8,8,130 # Opcode initiation intervals for double precision floating points <ADD,MAX,MUL,MAD,DIV>Default 8,8,8,8,130
DRAM Timing Options:
nbk                                    16 # number of banks
CCD                                     2 # column to column delay
RRD                                     6 # minimal delay between activation of rows in different banks
RCD                                    12 # row to column delay
RAS                                    28 # time needed to activate row
RP                                     12 # time needed to precharge (deactivate) row
RC                                     40 # row cycle time
CDLR                                    5 # switching from write to read (changes tWTR)
WR                                     12 # last data-in to row precharge
CL                                     12 # CAS latency
WL                                      4 # Write latency
nbkgrp                                  4 # number of bank groups
CCDL                                    3 # column to column delay between accesses to different bank groups
RTPL                                    2 # read to precharge delay between accesses to different bank groups
Total number of memory sub partition = 32
addr_dec_mask[CHIP]  = 0000000000000f00 	high:12 low:8
addr_dec_mask[BK]    = 00000000000e1000 	high:20 low:12
addr_dec_mask[ROW]   = 00000000fff00000 	high:32 low:20
addr_dec_mask[COL]   = 000000000001e0ff 	high:17 low:0
addr_dec_mask[BURST] = 000000000000003f 	high:6 low:0
sub_partition_id_mask = 0000000000001000
GPGPU-Sim uArch: clock freqs: 700000000.000000:700000000.000000:700000000.000000:924000000.000000
GPGPU-Sim uArch: clock periods: 0.00000000142857142857:0.00000000142857142857:0.00000000142857142857:0.00000000108225108225
*** Initializing Memory Statistics ***
GPGPU-Sim uArch: interconnect node map (shaderID+MemID to icntID)
GPGPU-Sim uArch: Memory nodes ID start from index: 68
GPGPU-Sim uArch:    0   1   2   3   4   5   6   7   8   9
GPGPU-Sim uArch:   10  11  12  13  14  15  16  17  18  19
GPGPU-Sim uArch:   20  21  22  23  24  25  26  27  28  29
GPGPU-Sim uArch:   30  31  32  33  34  35  36  37  38  39
GPGPU-Sim uArch:   40  41  42  43  44  45  46  47  48  49
GPGPU-Sim uArch:   50  51  52  53  54  55  56  57  58  59
GPGPU-Sim uArch:   60  61  62  63  64  65  66  67  68  69
GPGPU-Sim uArch:   70  71  72  73  74  75  76  77  78  79
GPGPU-Sim uArch:   80  81  82  83  84  85  86  87  88  89
GPGPU-Sim uArch:   90  91  92  93  94  95  96  97  98  99
GPGPU-Sim uArch: interconnect node reverse map (icntID to shaderID+MemID)
GPGPU-Sim uArch: Memory nodes start from ID: 68
GPGPU-Sim uArch:    0   1   2   3   4   5   6   7   8   9
GPGPU-Sim uArch:   10  11  12  13  14  15  16  17  18  19
GPGPU-Sim uArch:   20  21  22  23  24  25  26  27  28  29
GPGPU-Sim uArch:   30  31  32  33  34  35  36  37  38  39
GPGPU-Sim uArch:   40  41  42  43  44  45  46  47  48  49
GPGPU-Sim uArch:   50  51  52  53  54  55  56  57  58  59
GPGPU-Sim uArch:   60  61  62  63  64  65  66  67  68  69
GPGPU-Sim uArch:   70  71  72  73  74  75  76  77  78  79
GPGPU-Sim uArch:   80  81  82  83  84  85  86  87  88  89
GPGPU-Sim uArch:   90  91  92  93  94  95  96  97  98  99
5f50f4a99376f06d6117c4587fc14674  /root/ispass2009-benchmarks/bin/release/RAY
GPGPU-Sim uArch: performance model initialization complete.
GPGPU-Sim PTX: __cudaRegisterFatBinary, fat_cubin_handle = 1, filename=rayTracing.cu
self exe links to: /root/ispass2009-benchmarks/bin/release/RAY
Running md5sum using "md5sum /root/ispass2009-benchmarks/bin/release/RAY "
Running cuobjdump using "$CUDA_INSTALL_PATH/bin/cuobjdump -ptx -elf -sass /root/ispass2009-benchmarks/bin/release/RAY > _cuobjdump_complete_output_SOVVXd"
Parsing file _cuobjdump_complete_output_SOVVXd
######### cuobjdump parser ########
## Adding new section PTX
Adding ptx filename: _cuobjdump_1.ptx
Adding arch: sm_30
Adding identifier: rayTracing.cu
## Adding new section ELF
Adding arch: sm_30
Adding identifier: rayTracing.cu
## Adding new section ELF
Adding arch: sm_20
Adding identifier: rayTracing.cu
## Adding new section PTX
Adding ptx filename: _cuobjdump_2.ptx
Adding arch: sm_20
Adding identifier: rayTracing.cu
## Adding new section PTX
Adding ptx filename: _cuobjdump_3.ptx
Adding arch: sm_10
Adding identifier: rayTracing.cu
## Adding new section ELF
Adding arch: sm_10
Adding identifier: rayTracing.cu
Done parsing!!!
GPGPU-Sim PTX: __cudaRegisterFunction _Z6renderPjP4Nodejjff : hostFun 0x0x40ad70, fat_cubin_handle = 1
GPGPU-Sim PTX: allocating constant region for "MView" from 0x100 to 0x130 (global memory space) 1
GPGPU-Sim PTX: allocating constant region for "cnode" from 0x180 to 0x220 (global memory space) 2
GPGPU-Sim PTX: allocating stack frame region for .param "func_retval0" from 0x0 to 0xc
GPGPU-Sim PTX: allocating stack frame region for .param "_Zmi6float3S__param_0" from 0xc to 0x18
GPGPU-Sim PTX: allocating stack frame region for .param "_Zmi6float3S__param_1" from 0x18 to 0x24
GPGPU-Sim PTX: instruction assembly for function '_Zmi6float3S_'...   done.
GPGPU-Sim PTX: finding reconvergence points for '_Zmi6float3S_'...
GPGPU-Sim PTX: Finding dominators for '_Zmi6float3S_'...
GPGPU-Sim PTX: Finding immediate dominators for '_Zmi6float3S_'...
GPGPU-Sim PTX: Finding postdominators for '_Zmi6float3S_'...
GPGPU-Sim PTX: Finding immediate postdominators for '_Zmi6float3S_'...
GPGPU-Sim PTX: pre-decoding instructions for '_Zmi6float3S_'...
GPGPU-Sim PTX: reconvergence points for _Zmi6float3S_...
GPGPU-Sim PTX: ... end of reconvergence points for _Zmi6float3S_
GPGPU-Sim PTX: ... done pre-decoding instructions for '_Zmi6float3S_'.
GPGPU-Sim PTX: allocating stack frame region for .param "func_retval0" from 0x0 to 0xc
GPGPU-Sim PTX: allocating stack frame region for .param "_Z9normalize6float3_param_0" from 0xc to 0x18
GPGPU-Sim PTX: instruction assembly for function '_Z9normalize6float3'...   done.
GPGPU-Sim PTX: finding reconvergence points for '_Z9normalize6float3'...
GPGPU-Sim PTX: Finding dominators for '_Z9normalize6float3'...
GPGPU-Sim PTX: Finding immediate dominators for '_Z9normalize6float3'...
GPGPU-Sim PTX: Finding postdominators for '_Z9normalize6float3'...
GPGPU-Sim PTX: Finding immediate postdominators for '_Z9normalize6float3'...
GPGPU-Sim PTX: pre-decoding instructions for '_Z9normalize6float3'...
GPGPU-Sim PTX: reconvergence points for _Z9normalize6float3...
GPGPU-Sim PTX: ... end of reconvergence points for _Z9normalize6float3
GPGPU-Sim PTX: ... done pre-decoding instructions for '_Z9normalize6float3'.
GPGPU-Sim PTX: allocating stack frame region for .param "func_retval0" from 0x0 to 0x4
GPGPU-Sim PTX: allocating stack frame region for .param "_Z18intersectionSphere5Rayon6float3f_param_0" from 0x4 to 0x1c
GPGPU-Sim PTX: allocating stack frame region for .param "_Z18intersectionSphere5Rayon6float3f_param_1" from 0x1c to 0x28
GPGPU-Sim PTX: allocating stack frame region for .param "_Z18intersectionSphere5Rayon6float3f_param_2" from 0x28 to 0x2c
GPGPU-Sim PTX: instruction assembly for function '_Z18intersectionSphere5Rayon6float3f'...   done.
GPGPU-Sim PTX: finding reconvergence points for '_Z18intersectionSphere5Rayon6float3f'...
GPGPU-Sim PTX: Finding dominators for '_Z18intersectionSphere5Rayon6float3f'...
GPGPU-Sim PTX: Finding immediate dominators for '_Z18intersectionSphere5Rayon6float3f'...
GPGPU-Sim PTX: Finding postdominators for '_Z18intersectionSphere5Rayon6float3f'...
GPGPU-Sim PTX: Finding immediate postdominators for '_Z18intersectionSphere5Rayon6float3f'...
GPGPU-Sim PTX: pre-decoding instructions for '_Z18intersectionSphere5Rayon6float3f'...
GPGPU-Sim PTX: reconvergence points for _Z18intersectionSphere5Rayon6float3f...
GPGPU-Sim PTX:  1 (potential) branch divergence @  PC=0x1b8 (_1.ptx:122) @%p3 bra BB2_3;
GPGPU-Sim PTX:    immediate post dominator      @ 
GPGPU-Sim PTX:  2 (potential) branch divergence @  PC=0x1d8 (_1.ptx:129) @%p4 bra BB2_3;
GPGPU-Sim PTX:    immediate post dominator      @ 
GPGPU-Sim PTX: ... end of reconvergence points for _Z18intersectionSphere5Rayon6float3f
GPGPU-Sim PTX: ... done pre-decoding instructions for '_Z18intersectionSphere5Rayon6float3f'.
GPGPU-Sim PTX: allocating stack frame region for .param "func_retval0" from 0x0 to 0x4
GPGPU-Sim PTX: allocating stack frame region for .param "_Z16intersectionPlan5Rayon6float3S0__param_0" from 0x4 to 0x1c
GPGPU-Sim PTX: allocating stack frame region for .param "_Z16intersectionPlan5Rayon6float3S0__param_1" from 0x1c to 0x28
GPGPU-Sim PTX: allocating stack frame region for .param "_Z16intersectionPlan5Rayon6float3S0__param_2" from 0x28 to 0x34
GPGPU-Sim PTX: instruction assembly for function '_Z16intersectionPlan5Rayon6float3S0_'...   done.
GPGPU-Sim PTX: finding reconvergence points for '_Z16intersectionPlan5Rayon6float3S0_'...
GPGPU-Sim PTX: Finding dominators for '_Z16intersectionPlan5Rayon6float3S0_'...
GPGPU-Sim PTX: Finding immediate dominators for '_Z16intersectionPlan5Rayon6float3S0_'...
GPGPU-Sim PTX: Finding postdominators for '_Z16intersectionPlan5Rayon6float3S0_'...
GPGPU-Sim PTX: Finding immediate postdominators for '_Z16intersectionPlan5Rayon6float3S0_'...
GPGPU-Sim PTX: pre-decoding instructions for '_Z16intersectionPlan5Rayon6float3S0_'...
GPGPU-Sim PTX: reconvergence points for _Z16intersectionPlan5Rayon6float3S0_...
GPGPU-Sim PTX:  1 (potential) branch divergence @  PC=0x2c0 (_1.ptx:185) @%p1 bra BB3_2;
GPGPU-Sim PTX:    immediate post dominator      @ 
GPGPU-Sim PTX: ... end of reconvergence points for _Z16intersectionPlan5Rayon6float3S0_
GPGPU-Sim PTX: ... done pre-decoding instructions for '_Z16intersectionPlan5Rayon6float3S0_'.
GPGPU-Sim PTX: allocating stack frame region for .param "func_retval0" from 0x0 to 0xc
GPGPU-Sim PTX: allocating stack frame region for .param "_Z10getNormale6float3S__param_0" from 0xc to 0x18
GPGPU-Sim PTX: allocating stack frame region for .param "_Z10getNormale6float3S__param_1" from 0x18 to 0x24
GPGPU-Sim PTX: instruction assembly for function '_Z10getNormale6float3S_'...   done.
GPGPU-Sim PTX: finding reconvergence points for '_Z10getNormale6float3S_'...
GPGPU-Sim PTX: Finding dominators for '_Z10getNormale6float3S_'...
GPGPU-Sim PTX: Finding immediate dominators for '_Z10getNormale6float3S_'...
GPGPU-Sim PTX: Finding postdominators for '_Z10getNormale6float3S_'...
GPGPU-Sim PTX: Finding immediate postdominators for '_Z10getNormale6float3S_'...
GPGPU-Sim PTX: pre-decoding instructions for '_Z10getNormale6float3S_'...
GPGPU-Sim PTX: reconvergence points for _Z10getNormale6float3S_...
GPGPU-Sim PTX: ... end of reconvergence points for _Z10getNormale6float3S_
GPGPU-Sim PTX: ... done pre-decoding instructions for '_Z10getNormale6float3S_'.
GPGPU-Sim PTX: allocating stack frame region for .param "func_retval0" from 0x0 to 0xc
GPGPU-Sim PTX: allocating stack frame region for .param "_Z11getNormaleP6float3_param_0" from 0xc to 0x18
GPGPU-Sim PTX: instruction assembly for function '_Z11getNormaleP6float3'...   done.
GPGPU-Sim PTX: finding reconvergence points for '_Z11getNormaleP6float3'...
GPGPU-Sim PTX: Finding dominators for '_Z11getNormaleP6float3'...
GPGPU-Sim PTX: Finding immediate dominators for '_Z11getNormaleP6float3'...
GPGPU-Sim PTX: Finding postdominators for '_Z11getNormaleP6float3'...
GPGPU-Sim PTX: Finding immediate postdominators for '_Z11getNormaleP6float3'...
GPGPU-Sim PTX: pre-decoding instructions for '_Z11getNormaleP6float3'...
GPGPU-Sim PTX: reconvergence points for _Z11getNormaleP6float3...
GPGPU-Sim PTX: ... end of reconvergence points for _Z11getNormaleP6float3
GPGPU-Sim PTX: ... done pre-decoding instructions for '_Z11getNormaleP6float3'.
GPGPU-Sim PTX: allocating stack frame region for .param "func_retval0" from 0x0 to 0xc
GPGPU-Sim PTX: allocating stack frame region for .param "_Z3mul10matrice3x46float3_param_0" from 0xc to 0x3c
GPGPU-Sim PTX: allocating stack frame region for .param "_Z3mul10matrice3x46float3_param_1" from 0x3c to 0x48
GPGPU-Sim PTX: instruction assembly for function '_Z3mul10matrice3x46float3'...   done.
GPGPU-Sim PTX: finding reconvergence points for '_Z3mul10matrice3x46float3'...
GPGPU-Sim PTX: Finding dominators for '_Z3mul10matrice3x46float3'...
GPGPU-Sim PTX: Finding immediate dominators for '_Z3mul10matrice3x46float3'...
GPGPU-Sim PTX: Finding postdominators for '_Z3mul10matrice3x46float3'...
GPGPU-Sim PTX: Finding immediate postdominators for '_Z3mul10matrice3x46float3'...
GPGPU-Sim PTX: pre-decoding instructions for '_Z3mul10matrice3x46float3'...
GPGPU-Sim PTX: reconvergence points for _Z3mul10matrice3x46float3...
GPGPU-Sim PTX: ... end of reconvergence points for _Z3mul10matrice3x46float3
GPGPU-Sim PTX: ... done pre-decoding instructions for '_Z3mul10matrice3x46float3'.
GPGPU-Sim PTX: allocating stack frame region for .param "func_retval0" from 0x0 to 0x10
GPGPU-Sim PTX: allocating stack frame region for .param "_Z3mul10matrice3x46float4_param_0" from 0x10 to 0x40
GPGPU-Sim PTX: allocating stack frame region for .param "_Z3mul10matrice3x46float4_param_1" from 0x40 to 0x50
GPGPU-Sim PTX: instruction assembly for function '_Z3mul10matrice3x46float4'...   done.
GPGPU-Sim PTX: finding reconvergence points for '_Z3mul10matrice3x46float4'...
GPGPU-Sim PTX: Finding dominators for '_Z3mul10matrice3x46float4'...
GPGPU-Sim PTX: Finding immediate dominators for '_Z3mul10matrice3x46float4'...
GPGPU-Sim PTX: Finding postdominators for '_Z3mul10matrice3x46float4'...
GPGPU-Sim PTX: Finding immediate postdominators for '_Z3mul10matrice3x46float4'...
GPGPU-Sim PTX: pre-decoding instructions for '_Z3mul10matrice3x46float4'...
GPGPU-Sim PTX: reconvergence points for _Z3mul10matrice3x46float4...
GPGPU-Sim PTX: ... end of reconvergence points for _Z3mul10matrice3x46float4
GPGPU-Sim PTX: ... done pre-decoding instructions for '_Z3mul10matrice3x46float4'.
GPGPU-Sim PTX: allocating stack frame region for .param "func_retval0" from 0x0 to 0x4
GPGPU-Sim PTX: allocating stack frame region for .param "_Z14rgbaFloatToInt6float4_param_0" from 0x4 to 0x14
GPGPU-Sim PTX: instruction assembly for function '_Z14rgbaFloatToInt6float4'...   done.
GPGPU-Sim PTX: finding reconvergence points for '_Z14rgbaFloatToInt6float4'...
GPGPU-Sim PTX: Finding dominators for '_Z14rgbaFloatToInt6float4'...
GPGPU-Sim PTX: Finding immediate dominators for '_Z14rgbaFloatToInt6float4'...
GPGPU-Sim PTX: Finding postdominators for '_Z14rgbaFloatToInt6float4'...
GPGPU-Sim PTX: Finding immediate postdominators for '_Z14rgbaFloatToInt6float4'...
GPGPU-Sim PTX: pre-decoding instructions for '_Z14rgbaFloatToInt6float4'...
GPGPU-Sim PTX: reconvergence points for _Z14rgbaFloatToInt6float4...
GPGPU-Sim PTX: ... end of reconvergence points for _Z14rgbaFloatToInt6float4
GPGPU-Sim PTX: ... done pre-decoding instructions for '_Z14rgbaFloatToInt6float4'.
GPGPU-Sim PTX: allocating stack frame region for .param "func_retval0" from 0x0 to 0x4
GPGPU-Sim PTX: allocating stack frame region for .param "_Z12notShadowRayP4Node6float3S1_f_param_0" from 0x4 to 0xc
GPGPU-Sim PTX: allocating stack frame region for .param "_Z12notShadowRayP4Node6float3S1_f_param_1" from 0xc to 0x18
GPGPU-Sim PTX: allocating stack frame region for .param "_Z12notShadowRayP4Node6float3S1_f_param_2" from 0x18 to 0x24
GPGPU-Sim PTX: allocating stack frame region for .param "_Z12notShadowRayP4Node6float3S1_f_param_3" from 0x24 to 0x28
GPGPU-Sim PTX: instruction assembly for function '_Z12notShadowRayP4Node6float3S1_f'...   done.
GPGPU-Sim PTX: finding reconvergence points for '_Z12notShadowRayP4Node6float3S1_f'...
GPGPU-Sim PTX: Finding dominators for '_Z12notShadowRayP4Node6float3S1_f'...
GPGPU-Sim PTX: Finding immediate dominators for '_Z12notShadowRayP4Node6float3S1_f'...
GPGPU-Sim PTX: Finding postdominators for '_Z12notShadowRayP4Node6float3S1_f'...
GPGPU-Sim PTX: Finding immediate postdominators for '_Z12notShadowRayP4Node6float3S1_f'...
GPGPU-Sim PTX: pre-decoding instructions for '_Z12notShadowRayP4Node6float3S1_f'...
GPGPU-Sim PTX: reconvergence points for _Z12notShadowRayP4Node6float3S1_f...
GPGPU-Sim PTX:  1 (potential) branch divergence @  PC=0x7c8 (_1.ptx:471) @%p2 bra BB9_4;
GPGPU-Sim PTX:    immediate post dominator      @  PC=0x938 (_1.ptx:551) mov.f32 %f26, %f78;
GPGPU-Sim PTX:  2 (potential) branch divergence @  PC=0x810 (_1.ptx:486) @%p3 bra BB9_7;
GPGPU-Sim PTX:    immediate post dominator      @  PC=0x938 (_1.ptx:551) mov.f32 %f26, %f78;
GPGPU-Sim PTX:  3 (potential) branch divergence @  PC=0x868 (_1.ptx:505) bra.uni BB9_8;
GPGPU-Sim PTX:    immediate post dominator      @  PC=0x938 (_1.ptx:551) mov.f32 %f26, %f78;
GPGPU-Sim PTX:  4 (potential) branch divergence @  PC=0x8d8 (_1.ptx:529) @%p6 bra BB9_7;
GPGPU-Sim PTX:    immediate post dominator      @  PC=0x938 (_1.ptx:551) mov.f32 %f26, %f78;
GPGPU-Sim PTX:  5 (potential) branch divergence @  PC=0x8f8 (_1.ptx:536) @%p7 bra BB9_7;
GPGPU-Sim PTX:    immediate post dominator      @  PC=0x938 (_1.ptx:551) mov.f32 %f26, %f78;
GPGPU-Sim PTX:  6 (potential) branch divergence @  PC=0x928 (_1.ptx:545) bra.uni BB9_8;
GPGPU-Sim PTX:    immediate post dominator      @  PC=0x938 (_1.ptx:551) mov.f32 %f26, %f78;
GPGPU-Sim PTX:  7 (potential) branch divergence @  PC=0x948 (_1.ptx:554) @%p8 bra BB9_10;
GPGPU-Sim PTX:    immediate post dominator      @  PC=0x9a8 (_1.ptx:573) mov.f32 %f27, %f77;
GPGPU-Sim PTX:  8 (potential) branch divergence @  PC=0x988 (_1.ptx:563) @%p9 bra BB9_11;
GPGPU-Sim PTX:    immediate post dominator      @  PC=0x9a8 (_1.ptx:573) mov.f32 %f27, %f77;
GPGPU-Sim PTX:  9 (potential) branch divergence @  PC=0x998 (_1.ptx:567) bra.uni BB9_12;
GPGPU-Sim PTX:    immediate post dominator      @  PC=0x9a8 (_1.ptx:573) mov.f32 %f27, %f77;
GPGPU-Sim PTX: 10 (potential) branch divergence @  PC=0x9d0 (_1.ptx:581) @%p12 bra BB9_1;
GPGPU-Sim PTX:    immediate post dominator      @  PC=0x9d8 (_1.ptx:584) selp.u32 %r14, 1, 0, %p11;
GPGPU-Sim PTX: ... end of reconvergence points for _Z12notShadowRayP4Node6float3S1_f
GPGPU-Sim PTX: ... done pre-decoding instructions for '_Z12notShadowRayP4Node6float3S1_f'.
GPGPU-Sim PTX: allocating stack frame region for .param "func_retval0" from 0x0 to 0x4
GPGPU-Sim PTX: allocating stack frame region for .param "_Z15float2int_pow20f_param_0" from 0x4 to 0x8
GPGPU-Sim PTX: instruction assembly for function '_Z15float2int_pow20f'...   done.
GPGPU-Sim PTX: finding reconvergence points for '_Z15float2int_pow20f'...
GPGPU-Sim PTX: Finding dominators for '_Z15float2int_pow20f'...
GPGPU-Sim PTX: Finding immediate dominators for '_Z15float2int_pow20f'...
GPGPU-Sim PTX: Finding postdominators for '_Z15float2int_pow20f'...
GPGPU-Sim PTX: Finding immediate postdominators for '_Z15float2int_pow20f'...
GPGPU-Sim PTX: pre-decoding instructions for '_Z15float2int_pow20f'...
GPGPU-Sim PTX: reconvergence points for _Z15float2int_pow20f...
GPGPU-Sim PTX: ... end of reconvergence points for _Z15float2int_pow20f
GPGPU-Sim PTX: ... done pre-decoding instructions for '_Z15float2int_pow20f'.
GPGPU-Sim PTX: allocating stack frame region for .param "func_retval0" from 0x0 to 0x4
GPGPU-Sim PTX: allocating stack frame region for .param "_Z15float2int_pow50f_param_0" from 0x4 to 0x8
GPGPU-Sim PTX: instruction assembly for function '_Z15float2int_pow50f'...   done.
GPGPU-Sim PTX: finding reconvergence points for '_Z15float2int_pow50f'...
GPGPU-Sim PTX: Finding dominators for '_Z15float2int_pow50f'...
GPGPU-Sim PTX: Finding immediate dominators for '_Z15float2int_pow50f'...
GPGPU-Sim PTX: Finding postdominators for '_Z15float2int_pow50f'...
GPGPU-Sim PTX: Finding immediate postdominators for '_Z15float2int_pow50f'...
GPGPU-Sim PTX: pre-decoding instructions for '_Z15float2int_pow50f'...
GPGPU-Sim PTX: reconvergence points for _Z15float2int_pow50f...
GPGPU-Sim PTX: ... end of reconvergence points for _Z15float2int_pow50f
GPGPU-Sim PTX: ... done pre-decoding instructions for '_Z15float2int_pow50f'.
GPGPU-Sim PTX: allocating stack frame region for .local "__local_depot12" from 0x0 to 0x50
GPGPU-Sim PTX: instruction assembly for function '_Z6renderPjP4Nodejjff'...   done.
GPGPU-Sim PTX: finding reconvergence points for '_Z6renderPjP4Nodejjff'...
GPGPU-Sim PTX: Finding dominators for '_Z6renderPjP4Nodejjff'...
GPGPU-Sim PTX: Finding immediate dominators for '_Z6renderPjP4Nodejjff'...
GPGPU-Sim PTX: Finding postdominators for '_Z6renderPjP4Nodejjff'...
GPGPU-Sim PTX: Finding immediate postdominators for '_Z6renderPjP4Nodejjff'...
GPGPU-Sim PTX: pre-decoding instructions for '_Z6renderPjP4Nodejjff'...
GPGPU-Sim PTX: reconvergence points for _Z6renderPjP4Nodejjff...
GPGPU-Sim PTX:  1 (potential) branch divergence @  PC=0xd18 (_1.ptx:737) @%p10 bra BB12_2;
GPGPU-Sim PTX:    immediate post dominator      @ 
GPGPU-Sim PTX:  2 (potential) branch divergence @  PC=0xfb0 (_1.ptx:851) @%p12 bra BB12_6;
GPGPU-Sim PTX:    immediate post dominator      @  PC=0x1120 (_1.ptx:932) setp.lt.f32 %p18, %f694, 0f461C4000;
GPGPU-Sim PTX:  3 (potential) branch divergence @  PC=0xff8 (_1.ptx:866) @%p13 bra BB12_9;
GPGPU-Sim PTX:    immediate post dominator      @  PC=0x1120 (_1.ptx:932) setp.lt.f32 %p18, %f694, 0f461C4000;
GPGPU-Sim PTX:  4 (potential) branch divergence @  PC=0x1050 (_1.ptx:885) bra.uni BB12_10;
GPGPU-Sim PTX:    immediate post dominator      @  PC=0x1120 (_1.ptx:932) setp.lt.f32 %p18, %f694, 0f461C4000;
GPGPU-Sim PTX:  5 (potential) branch divergence @  PC=0x10c0 (_1.ptx:909) @%p16 bra BB12_9;
GPGPU-Sim PTX:    immediate post dominator      @  PC=0x1120 (_1.ptx:932) setp.lt.f32 %p18, %f694, 0f461C4000;
GPGPU-Sim PTX:  6 (potential) branch divergence @  PC=0x10e0 (_1.ptx:916) @%p17 bra BB12_9;
GPGPU-Sim PTX:    immediate post dominator      @  PC=0x1120 (_1.ptx:932) setp.lt.f32 %p18, %f694, 0f461C4000;
GPGPU-Sim PTX:  7 (potential) branch divergence @  PC=0x1110 (_1.ptx:925) bra.uni BB12_10;
GPGPU-Sim PTX:    immediate post dominator      @  PC=0x1120 (_1.ptx:932) setp.lt.f32 %p18, %f694, 0f461C4000;
GPGPU-Sim PTX:  8 (potential) branch divergence @  PC=0x1160 (_1.ptx:942) @%p21 bra BB12_13;
GPGPU-Sim PTX:    immediate post dominator      @  PC=0x12d0 (_1.ptx:1023) setp.lt.f32 %p27, %f695, %f68;
GPGPU-Sim PTX:  9 (potential) branch divergence @  PC=0x11a8 (_1.ptx:957) @%p22 bra BB12_16;
GPGPU-Sim PTX:    immediate post dominator      @  PC=0x12d0 (_1.ptx:1023) setp.lt.f32 %p27, %f695, %f68;
GPGPU-Sim PTX: 10 (potential) branch divergence @  PC=0x1200 (_1.ptx:976) bra.uni BB12_17;
GPGPU-Sim PTX:    immediate post dominator      @  PC=0x12d0 (_1.ptx:1023) setp.lt.f32 %p27, %f695, %f68;
GPGPU-Sim PTX: 11 (potential) branch divergence @  PC=0x1270 (_1.ptx:1000) @%p25 bra BB12_16;
GPGPU-Sim PTX:    immediate post dominator      @  PC=0x12d0 (_1.ptx:1023) setp.lt.f32 %p27, %f695, %f68;
GPGPU-Sim PTX: 12 (potential) branch divergence @  PC=0x1290 (_1.ptx:1007) @%p26 bra BB12_16;
GPGPU-Sim PTX:    immediate post dominator      @  PC=0x12d0 (_1.ptx:1023) setp.lt.f32 %p27, %f695, %f68;
GPGPU-Sim PTX: 13 (potential) branch divergence @  PC=0x12c0 (_1.ptx:1016) bra.uni BB12_17;
GPGPU-Sim PTX:    immediate post dominator      @  PC=0x12d0 (_1.ptx:1023) setp.lt.f32 %p27, %f695, %f68;
GPGPU-Sim PTX: 14 (potential) branch divergence @  PC=0x1310 (_1.ptx:1033) @%p30 bra BB12_20;
GPGPU-Sim PTX:    immediate post dominator      @  PC=0x1480 (_1.ptx:1114) setp.lt.f32 %p36, %f696, %f83;
GPGPU-Sim PTX: 15 (potential) branch divergence @  PC=0x1358 (_1.ptx:1048) @%p31 bra BB12_23;
GPGPU-Sim PTX:    immediate post dominator      @  PC=0x1480 (_1.ptx:1114) setp.lt.f32 %p36, %f696, %f83;
GPGPU-Sim PTX: 16 (potential) branch divergence @  PC=0x13b0 (_1.ptx:1067) bra.uni BB12_24;
GPGPU-Sim PTX:    immediate post dominator      @  PC=0x1480 (_1.ptx:1114) setp.lt.f32 %p36, %f696, %f83;
GPGPU-Sim PTX: 17 (potential) branch divergence @  PC=0x1420 (_1.ptx:1091) @%p34 bra BB12_23;
GPGPU-Sim PTX:    immediate post dominator      @  PC=0x1480 (_1.ptx:1114) setp.lt.f32 %p36, %f696, %f83;
GPGPU-Sim PTX: 18 (potential) branch divergence @  PC=0x1440 (_1.ptx:1098) @%p35 bra BB12_23;
GPGPU-Sim PTX:    immediate post dominator      @  PC=0x1480 (_1.ptx:1114) setp.lt.f32 %p36, %f696, %f83;
GPGPU-Sim PTX: 19 (potential) branch divergence @  PC=0x1470 (_1.ptx:1107) bra.uni BB12_24;
GPGPU-Sim PTX:    immediate post dominator      @  PC=0x1480 (_1.ptx:1114) setp.lt.f32 %p36, %f696, %f83;
GPGPU-Sim PTX: 20 (potential) branch divergence @  PC=0x14c0 (_1.ptx:1124) @%p39 bra BB12_27;
GPGPU-Sim PTX:    immediate post dominator      @  PC=0x1630 (_1.ptx:1205) setp.lt.f32 %p45, %f697, %f98;
GPGPU-Sim PTX: 21 (potential) branch divergence @  PC=0x1508 (_1.ptx:1139) @%p40 bra BB12_30;
GPGPU-Sim PTX:    immediate post dominator      @  PC=0x1630 (_1.ptx:1205) setp.lt.f32 %p45, %f697, %f98;
GPGPU-Sim PTX: 22 (potential) branch divergence @  PC=0x1560 (_1.ptx:1158) bra.uni BB12_31;
GPGPU-Sim PTX:    immediate post dominator      @  PC=0x1630 (_1.ptx:1205) setp.lt.f32 %p45, %f697, %f98;
GPGPU-Sim PTX: 23 (potential) branch divergence @  PC=0x15d0 (_1.ptx:1182) @%p43 bra BB12_30;
GPGPU-Sim PTX:    immediate post dominator      @  PC=0x1630 (_1.ptx:1205) setp.lt.f32 %p45, %f697, %f98;
GPGPU-Sim PTX: 24 (potential) branch divergence @  PC=0x15f0 (_1.ptx:1189) @%p44 bra BB12_30;
GPGPU-Sim PTX:    immediate post dominator      @  PC=0x1630 (_1.ptx:1205) setp.lt.f32 %p45, %f697, %f98;
GPGPU-Sim PTX: 25 (potential) branch divergence @  PC=0x1620 (_1.ptx:1198) bra.uni BB12_31;
GPGPU-Sim PTX:    immediate post dominator      @  PC=0x1630 (_1.ptx:1205) setp.lt.f32 %p45, %f697, %f98;
GPGPU-Sim PTX: 26 (potential) branch divergence @  PC=0x1670 (_1.ptx:1214) @%p50 bra BB12_32;
GPGPU-Sim PTX:    immediate post dominator      @  PC=0x22f8 (_1.ptx:1857) add.s32 %r130, %r130, 1;
GPGPU-Sim PTX: 27 (potential) branch divergence @  PC=0x1678 (_1.ptx:1215) bra.uni BB12_75;
GPGPU-Sim PTX:    immediate post dominator      @  PC=0x22f8 (_1.ptx:1857) add.s32 %r130, %r130, 1;
GPGPU-Sim PTX: 28 (potential) branch divergence @  PC=0x17b0 (_1.ptx:1267) @%p51 bra BB12_34;
GPGPU-Sim PTX:    immediate post dominator      @  PC=0x1830 (_1.ptx:1293) mov.f32 %f139, %f706;
GPGPU-Sim PTX: 29 (potential) branch divergence @  PC=0x17d8 (_1.ptx:1275) bra.uni BB12_35;
GPGPU-Sim PTX:    immediate post dominator      @  PC=0x1830 (_1.ptx:1293) mov.f32 %f139, %f706;
GPGPU-Sim PTX: 30 (potential) branch divergence @  PC=0x1868 (_1.ptx:1301) @%p52 bra BB12_37;
GPGPU-Sim PTX:    immediate post dominator      @  PC=0x18c0 (_1.ptx:1318) mov.f32 %f148, %f705;
GPGPU-Sim PTX: 31 (potential) branch divergence @  PC=0x1888 (_1.ptx:1306) bra.uni BB12_38;
GPGPU-Sim PTX:    immediate post dominator      @  PC=0x18c0 (_1.ptx:1318) mov.f32 %f148, %f705;
GPGPU-Sim PTX: 32 (potential) branch divergence @  PC=0x1930 (_1.ptx:1334) @%p53 bra BB12_74;
GPGPU-Sim PTX:    immediate post dominator      @  PC=0x2248 (_1.ptx:1828) add.f32 %f531, %f137, %f137;
GPGPU-Sim PTX: 33 (potential) branch divergence @  PC=0x1998 (_1.ptx:1355) @%p54 bra BB12_43;
GPGPU-Sim PTX:    immediate post dominator      @  PC=0x1b08 (_1.ptx:1435) mov.f32 %f169, %f709;
GPGPU-Sim PTX: 34 (potential) branch divergence @  PC=0x19e0 (_1.ptx:1370) @%p55 bra BB12_46;
GPGPU-Sim PTX:    immediate post dominator      @  PC=0x1b08 (_1.ptx:1435) mov.f32 %f169, %f709;
GPGPU-Sim PTX: 35 (potential) branch divergence @  PC=0x1a38 (_1.ptx:1389) bra.uni BB12_47;
GPGPU-Sim PTX:    immediate post dominator      @  PC=0x1b08 (_1.ptx:1435) mov.f32 %f169, %f709;
GPGPU-Sim PTX: 36 (potential) branch divergence @  PC=0x1aa8 (_1.ptx:1413) @%p58 bra BB12_46;
GPGPU-Sim PTX:    immediate post dominator      @  PC=0x1b08 (_1.ptx:1435) mov.f32 %f169, %f709;
GPGPU-Sim PTX: 37 (potential) branch divergence @  PC=0x1ac8 (_1.ptx:1420) @%p59 bra BB12_46;
GPGPU-Sim PTX:    immediate post dominator      @  PC=0x1b08 (_1.ptx:1435) mov.f32 %f169, %f709;
GPGPU-Sim PTX: 38 (potential) branch divergence @  PC=0x1af8 (_1.ptx:1429) bra.uni BB12_47;
GPGPU-Sim PTX:    immediate post dominator      @  PC=0x1b08 (_1.ptx:1435) mov.f32 %f169, %f709;
GPGPU-Sim PTX: 39 (potential) branch divergence @  PC=0x1b18 (_1.ptx:1438) @%p60 bra BB12_49;
GPGPU-Sim PTX:    immediate post dominator      @  PC=0x1b78 (_1.ptx:1457) mov.f32 %f170, %f708;
GPGPU-Sim PTX: 40 (potential) branch divergence @  PC=0x1b58 (_1.ptx:1447) @%p61 bra BB12_50;
GPGPU-Sim PTX:    immediate post dominator      @  PC=0x1b78 (_1.ptx:1457) mov.f32 %f170, %f708;
GPGPU-Sim PTX: 41 (potential) branch divergence @  PC=0x1b68 (_1.ptx:1451) bra.uni BB12_51;
GPGPU-Sim PTX:    immediate post dominator      @  PC=0x1b78 (_1.ptx:1457) mov.f32 %f170, %f708;
GPGPU-Sim PTX: 42 (potential) branch divergence @  PC=0x1ba0 (_1.ptx:1465) @%p64 bra BB12_40;
GPGPU-Sim PTX:    immediate post dominator      @  PC=0x1ba8 (_1.ptx:1468) setp.neu.f32 %p65, %f170, 0f00000000;
GPGPU-Sim PTX: 43 (potential) branch divergence @  PC=0x1bb0 (_1.ptx:1469) @%p65 bra BB12_74;
GPGPU-Sim PTX:    immediate post dominator      @  PC=0x2248 (_1.ptx:1828) add.f32 %f531, %f137, %f137;
GPGPU-Sim PTX: 44 (potential) branch divergence @  PC=0x1cd0 (_1.ptx:1516) @%p66 bra BB12_72;
GPGPU-Sim PTX:    immediate post dominator      @  PC=0x2200 (_1.ptx:1812) mov.f32 %f187, %f711;
GPGPU-Sim PTX: 45 (potential) branch divergence @  PC=0x1ce8 (_1.ptx:1522) @%p67 bra BB12_71;
GPGPU-Sim PTX:    immediate post dominator      @  PC=0x2200 (_1.ptx:1812) mov.f32 %f187, %f711;
GPGPU-Sim PTX: 46 (potential) branch divergence @  PC=0x1d00 (_1.ptx:1528) @%p68 bra BB12_71;
GPGPU-Sim PTX:    immediate post dominator      @  PC=0x2200 (_1.ptx:1812) mov.f32 %f187, %f711;
GPGPU-Sim PTX: 47 (potential) branch divergence @  PC=0x1d10 (_1.ptx:1532) @%p69 bra BB12_70;
GPGPU-Sim PTX:    immediate post dominator      @  PC=0x2200 (_1.ptx:1812) mov.f32 %f187, %f711;
GPGPU-Sim PTX: 48 (potential) branch divergence @  PC=0x1d20 (_1.ptx:1537) @%p70 bra BB12_68;
GPGPU-Sim PTX:    immediate post dominator      @  PC=0x2200 (_1.ptx:1812) mov.f32 %f187, %f711;
GPGPU-Sim PTX: 49 (potential) branch divergence @  PC=0x1d50 (_1.ptx:1549) @%p71 bra BB12_67;
GPGPU-Sim PTX:    immediate post dominator      @  PC=0x2200 (_1.ptx:1812) mov.f32 %f187, %f711;
GPGPU-Sim PTX: 50 (potential) branch divergence @  PC=0x1d68 (_1.ptx:1554) @%p72 bra BB12_66;
GPGPU-Sim PTX:    immediate post dominator      @  PC=0x2200 (_1.ptx:1812) mov.f32 %f187, %f711;
GPGPU-Sim PTX: 51 (potential) branch divergence @  PC=0x1d80 (_1.ptx:1559) @%p73 bra BB12_62;
GPGPU-Sim PTX:    immediate post dominator      @  PC=0x2200 (_1.ptx:1812) mov.f32 %f187, %f711;
GPGPU-Sim PTX: 52 (potential) branch divergence @  PC=0x1d98 (_1.ptx:1565) @%p74 bra BB12_65;
GPGPU-Sim PTX:    immediate post dominator      @  PC=0x2200 (_1.ptx:1812) mov.f32 %f187, %f711;
GPGPU-Sim PTX: 53 (potential) branch divergence @  PC=0x20d8 (_1.ptx:1740) @%p81 bra BB12_63;
GPGPU-Sim PTX:    immediate post dominator      @  PC=0x20f0 (_1.ptx:1749) mov.b32 %r87, %f710;
GPGPU-Sim PTX: 54 (potential) branch divergence @  PC=0x20e0 (_1.ptx:1741) bra.uni BB12_64;
GPGPU-Sim PTX:    immediate post dominator      @  PC=0x20f0 (_1.ptx:1749) mov.b32 %r87, %f710;
GPGPU-Sim PTX: 55 (potential) branch divergence @  PC=0x2120 (_1.ptx:1757) bra.uni BB12_73;
GPGPU-Sim PTX:    immediate post dominator      @  PC=0x2200 (_1.ptx:1812) mov.f32 %f187, %f711;
GPGPU-Sim PTX: 56 (potential) branch divergence @  PC=0x2138 (_1.ptx:1763) bra.uni BB12_73;
GPGPU-Sim PTX:    immediate post dominator      @  PC=0x2200 (_1.ptx:1812) mov.f32 %f187, %f711;
GPGPU-Sim PTX: 57 (potential) branch divergence @  PC=0x2170 (_1.ptx:1776) bra.uni BB12_73;
GPGPU-Sim PTX:    immediate post dominator      @  PC=0x2200 (_1.ptx:1812) mov.f32 %f187, %f711;
GPGPU-Sim PTX: 58 (potential) branch divergence @  PC=0x2190 (_1.ptx:1783) bra.uni BB12_73;
GPGPU-Sim PTX:    immediate post dominator      @  PC=0x2200 (_1.ptx:1812) mov.f32 %f187, %f711;
GPGPU-Sim PTX: 59 (potential) branch divergence @  PC=0x21a0 (_1.ptx:1788) @%p83 bra BB12_72;
GPGPU-Sim PTX:    immediate post dominator      @  PC=0x2200 (_1.ptx:1812) mov.f32 %f187, %f711;
GPGPU-Sim PTX: 60 (potential) branch divergence @  PC=0x21c8 (_1.ptx:1796) bra.uni BB12_73;
GPGPU-Sim PTX:    immediate post dominator      @  PC=0x2200 (_1.ptx:1812) mov.f32 %f187, %f711;
GPGPU-Sim PTX: 61 (potential) branch divergence @  PC=0x21d8 (_1.ptx:1800) bra.uni BB12_73;
GPGPU-Sim PTX:    immediate post dominator      @  PC=0x2200 (_1.ptx:1812) mov.f32 %f187, %f711;
GPGPU-Sim PTX: 62 (potential) branch divergence @  PC=0x21f0 (_1.ptx:1806) bra.uni BB12_73;
GPGPU-Sim PTX:    immediate post dominator      @  PC=0x2200 (_1.ptx:1812) mov.f32 %f187, %f711;
GPGPU-Sim PTX: 63 (potential) branch divergence @  PC=0x2318 (_1.ptx:1863) @%p87 bra BB12_3;
GPGPU-Sim PTX:    immediate post dominator      @  PC=0x2320 (_1.ptx:1865) add.s32 %r94, %r132, -1;
GPGPU-Sim PTX: 64 (potential) branch divergence @  PC=0x2330 (_1.ptx:1868) @%p88 bra BB12_79;
GPGPU-Sim PTX:    immediate post dominator      @  PC=0x23b8 (_1.ptx:1893) ld.local.v4.f32 {%f571, %f572, %f573, %f574}, [%rl3];
GPGPU-Sim PTX: 65 (potential) branch divergence @  PC=0x23b0 (_1.ptx:1889) @%p89 bra BB12_78;
GPGPU-Sim PTX:    immediate post dominator      @  PC=0x23b8 (_1.ptx:1893) ld.local.v4.f32 {%f571, %f572, %f573, %f574}, [%rl3];
GPGPU-Sim PTX: ... end of reconvergence points for _Z6renderPjP4Nodejjff
GPGPU-Sim PTX: ... done pre-decoding instructions for '_Z6renderPjP4Nodejjff'.
GPGPU-Sim PTX: allocating stack frame region for .param "_ZN4dim3C1Ejjj_param_0" from 0x0 to 0x8
GPGPU-Sim PTX: allocating stack frame region for .param "_ZN4dim3C1Ejjj_param_1" from 0x8 to 0xc
GPGPU-Sim PTX: allocating stack frame region for .param "_ZN4dim3C1Ejjj_param_2" from 0xc to 0x10
GPGPU-Sim PTX: allocating stack frame region for .param "_ZN4dim3C1Ejjj_param_3" from 0x10 to 0x14
GPGPU-Sim PTX: instruction assembly for function '_ZN4dim3C1Ejjj'...   done.
GPGPU-Sim PTX: finding reconvergence points for '_ZN4dim3C1Ejjj'...
GPGPU-Sim PTX: Finding dominators for '_ZN4dim3C1Ejjj'...
GPGPU-Sim PTX: Finding immediate dominators for '_ZN4dim3C1Ejjj'...
GPGPU-Sim PTX: Finding postdominators for '_ZN4dim3C1Ejjj'...
GPGPU-Sim PTX: Finding immediate postdominators for '_ZN4dim3C1Ejjj'...
GPGPU-Sim PTX: pre-decoding instructions for '_ZN4dim3C1Ejjj'...
GPGPU-Sim PTX: reconvergence points for _ZN4dim3C1Ejjj...
GPGPU-Sim PTX: ... end of reconvergence points for _ZN4dim3C1Ejjj
GPGPU-Sim PTX: ... done pre-decoding instructions for '_ZN4dim3C1Ejjj'.
GPGPU-Sim PTX: finished parsing EMBEDDED .ptx file _1.ptx
Adding _cuobjdump_2.ptx with cubin handle 1
GPGPU-Sim PTX: extracting embedded .ptx to temporary file "_ptx_0X0YFC"
Running: cat _ptx_0X0YFC | sed 's/.version 1.5/.version 1.4/' | sed 's/, texmode_independent//' | sed 's/\(\.extern \.const\[1\] .b8 \w\+\)\[\]/\1\[1\]/' | sed 's/const\[.\]/const\[0\]/g' > _ptx2_lRS3n1
GPGPU-Sim PTX: generating ptxinfo using "$CUDA_INSTALL_PATH/bin/ptxas --gpu-name=sm_20 -v _ptx2_lRS3n1 --output-file  /dev/null 2> _ptx_0X0YFCinfo"
GPGPU-Sim PTX: Kernel '_Z6renderPjP4Nodejjff' : regs=43, lmem=0, smem=0, cmem=324
GPGPU-Sim PTX: removing ptxinfo using "rm -f _ptx_0X0YFC _ptx2_lRS3n1 _ptx_0X0YFCinfo"
GPGPU-Sim PTX: loading globals with explicit initializers... 
GPGPU-Sim PTX: finished loading globals (0 bytes total).
GPGPU-Sim PTX: loading constants with explicit initializers...  done.
GPGPU-Sim PTX: __cudaRegisterVar: hostVar = 0x647740; deviceAddress = MView; deviceName = MView
GPGPU-Sim PTX: __cudaRegisterVar: Registering const memory space of 48 bytes
GPGPU-Sim PTX registering constant MView (48 bytes) to name mapping
GPGPU-Sim PTX: __cudaRegisterVar: hostVar = 0x647780; deviceAddress = cnode; deviceName = cnode
GPGPU-Sim PTX: __cudaRegisterVar: Registering const memory space of 160 bytes
GPGPU-Sim PTX registering constant cnode (160 bytes) to name mapping
GPGPU-Sim PTX: cudaMemcpyToSymbol: symbol = 0x647780
GPGPU-Sim PTX: starting gpgpu_ptx_sim_memcpy_symbol with hostVar 0x0x647780
GPGPU-Sim PTX: gpgpu_ptx_sim_memcpy_symbol: Found PTX symbol w/ hostVar=0x647780
GPGPU-Sim PTX: gpgpu_ptx_sim_memcpy_symbol: copying const memory 160 bytes  to  symbol cnode+0 @0x180 ...
GPGPU-Sim PTX: cudaMemcpyToSymbol: symbol = 0x647740
GPGPU-Sim PTX: starting gpgpu_ptx_sim_memcpy_symbol with hostVar 0x0x647740
GPGPU-Sim PTX: gpgpu_ptx_sim_memcpy_symbol: Found PTX symbol w/ hostVar=0x647740
GPGPU-Sim PTX: gpgpu_ptx_sim_memcpy_symbol: copying const memory 48 bytes  to  symbol MView+0 @0x100 ...

GPGPU-Sim PTX: cudaLaunch for 0x0x40ad70 (mode=performance simulation) on stream 0
GPGPU-Sim PTX: pushing kernel '_Z6renderPjP4Nodejjff' to stream 0, gridDim= (16,32,1) blockDim = (16,8,1) 
kernel '_Z6renderPjP4Nodejjff' transfer to GPU hardware scheduler
GPGPU-Sim uArch: Shader 1 bind to kernel 1 '_Z6renderPjP4Nodejjff'
GPGPU-Sim uArch: CTA/core = 5, limited by: regs
GPGPU-Sim uArch: core:  1, cta: 0 initialized @(1,0)
GPGPU-Sim uArch: Shader 2 bind to kernel 1 '_Z6renderPjP4Nodejjff'
GPGPU-Sim uArch: core:  2, cta: 0 initialized @(1,0)
GPGPU-Sim uArch: Shader 3 bind to kernel 1 '_Z6renderPjP4Nodejjff'
GPGPU-Sim uArch: core:  3, cta: 0 initialized @(1,0)
GPGPU-Sim uArch: Shader 4 bind to kernel 1 '_Z6renderPjP4Nodejjff'
GPGPU-Sim uArch: core:  4, cta: 0 initialized @(1,0)
GPGPU-Sim uArch: Shader 5 bind to kernel 1 '_Z6renderPjP4Nodejjff'
GPGPU-Sim uArch: core:  5, cta: 0 initialized @(1,0)
GPGPU-Sim uArch: Shader 6 bind to kernel 1 '_Z6renderPjP4Nodejjff'
GPGPU-Sim uArch: core:  6, cta: 0 initialized @(1,0)
GPGPU-Sim uArch: Shader 7 bind to kernel 1 '_Z6renderPjP4Nodejjff'
GPGPU-Sim uArch: core:  7, cta: 0 initialized @(1,0)
GPGPU-Sim uArch: Shader 8 bind to kernel 1 '_Z6renderPjP4Nodejjff'
GPGPU-Sim uArch: core:  8, cta: 0 initialized @(1,0)
GPGPU-Sim uArch: Shader 9 bind to kernel 1 '_Z6renderPjP4Nodejjff'
GPGPU-Sim uArch: core:  9, cta: 0 initialized @(1,0)
GPGPU-Sim uArch: Shader 10 bind to kernel 1 '_Z6renderPjP4Nodejjff'
GPGPU-Sim uArch: core: 10, cta: 0 initialized @(1,0)
GPGPU-Sim uArch: Shader 11 bind to kernel 1 '_Z6renderPjP4Nodejjff'
GPGPU-Sim uArch: core: 11, cta: 0 initialized @(1,0)
GPGPU-Sim uArch: Shader 12 bind to kernel 1 '_Z6renderPjP4Nodejjff'
GPGPU-Sim uArch: core: 12, cta: 0 initialized @(1,0)
GPGPU-Sim uArch: Shader 13 bind to kernel 1 '_Z6renderPjP4Nodejjff'
GPGPU-Sim uArch: core: 13, cta: 0 initialized @(1,0)
GPGPU-Sim uArch: Shader 14 bind to kernel 1 '_Z6renderPjP4Nodejjff'
GPGPU-Sim uArch: core: 14, cta: 0 initialized @(1,0)
GPGPU-Sim uArch: Shader 15 bind to kernel 1 '_Z6renderPjP4Nodejjff'
GPGPU-Sim uArch: core: 15, cta: 0 initialized @(1,0)
GPGPU-Sim uArch: Shader 16 bind to kernel 1 '_Z6renderPjP4Nodejjff'
GPGPU-Sim uArch: core: 16, cta: 0 initialized @(1,0)
GPGPU-Sim uArch: Shader 17 bind to kernel 1 '_Z6renderPjP4Nodejjff'
GPGPU-Sim uArch: core: 17, cta: 0 initialized @(1,0)
GPGPU-Sim uArch: Shader 18 bind to kernel 1 '_Z6renderPjP4Nodejjff'
GPGPU-Sim uArch: core: 18, cta: 0 initialized @(1,0)
GPGPU-Sim uArch: Shader 19 bind to kernel 1 '_Z6renderPjP4Nodejjff'
GPGPU-Sim uArch: core: 19, cta: 0 initialized @(1,0)
GPGPU-Sim uArch: Shader 20 bind to kernel 1 '_Z6renderPjP4Nodejjff'
GPGPU-Sim uArch: core: 20, cta: 0 initialized @(1,0)
GPGPU-Sim uArch: Shader 21 bind to kernel 1 '_Z6renderPjP4Nodejjff'
GPGPU-Sim uArch: core: 21, cta: 0 initialized @(1,0)
GPGPU-Sim uArch: Shader 22 bind to kernel 1 '_Z6renderPjP4Nodejjff'
GPGPU-Sim uArch: core: 22, cta: 0 initialized @(1,0)
GPGPU-Sim uArch: Shader 23 bind to kernel 1 '_Z6renderPjP4Nodejjff'
GPGPU-Sim uArch: core: 23, cta: 0 initialized @(1,0)
GPGPU-Sim uArch: Shader 24 bind to kernel 1 '_Z6renderPjP4Nodejjff'
GPGPU-Sim uArch: core: 24, cta: 0 initialized @(1,0)
GPGPU-Sim uArch: Shader 25 bind to kernel 1 '_Z6renderPjP4Nodejjff'
GPGPU-Sim uArch: core: 25, cta: 0 initialized @(1,0)
GPGPU-Sim uArch: Shader 26 bind to kernel 1 '_Z6renderPjP4Nodejjff'
GPGPU-Sim uArch: core: 26, cta: 0 initialized @(1,0)
GPGPU-Sim uArch: Shader 27 bind to kernel 1 '_Z6renderPjP4Nodejjff'
GPGPU-Sim uArch: core: 27, cta: 0 initialized @(1,0)
GPGPU-Sim uArch: Shader 28 bind to kernel 1 '_Z6renderPjP4Nodejjff'
GPGPU-Sim uArch: core: 28, cta: 0 initialized @(1,0)
GPGPU-Sim uArch: Shader 29 bind to kernel 1 '_Z6renderPjP4Nodejjff'
GPGPU-Sim uArch: core: 29, cta: 0 initialized @(1,0)
GPGPU-Sim uArch: Shader 30 bind to kernel 1 '_Z6renderPjP4Nodejjff'
GPGPU-Sim uArch: core: 30, cta: 0 initialized @(1,0)
GPGPU-Sim uArch: Shader 31 bind to kernel 1 '_Z6renderPjP4Nodejjff'
GPGPU-Sim uArch: core: 31, cta: 0 initialized @(1,0)
GPGPU-Sim uArch: Shader 32 bind to kernel 1 '_Z6renderPjP4Nodejjff'
GPGPU-Sim uArch: core: 32, cta: 0 initialized @(1,0)
GPGPU-Sim uArch: Shader 33 bind to kernel 1 '_Z6renderPjP4Nodejjff'
GPGPU-Sim uArch: core: 33, cta: 0 initialized @(1,0)
GPGPU-Sim uArch: Shader 34 bind to kernel 1 '_Z6renderPjP4Nodejjff'
GPGPU-Sim uArch: core: 34, cta: 0 initialized @(1,0)
GPGPU-Sim uArch: Shader 35 bind to kernel 1 '_Z6renderPjP4Nodejjff'
GPGPU-Sim uArch: core: 35, cta: 0 initialized @(1,0)
GPGPU-Sim uArch: Shader 36 bind to kernel 1 '_Z6renderPjP4Nodejjff'
GPGPU-Sim uArch: core: 36, cta: 0 initialized @(1,0)
GPGPU-Sim uArch: Shader 37 bind to kernel 1 '_Z6renderPjP4Nodejjff'
GPGPU-Sim uArch: core: 37, cta: 0 initialized @(1,0)
GPGPU-Sim uArch: Shader 38 bind to kernel 1 '_Z6renderPjP4Nodejjff'
GPGPU-Sim uArch: core: 38, cta: 0 initialized @(1,0)
GPGPU-Sim uArch: Shader 39 bind to kernel 1 '_Z6renderPjP4Nodejjff'
GPGPU-Sim uArch: core: 39, cta: 0 initialized @(1,0)
GPGPU-Sim uArch: Shader 40 bind to kernel 1 '_Z6renderPjP4Nodejjff'
GPGPU-Sim uArch: core: 40, cta: 0 initialized @(1,0)
GPGPU-Sim uArch: Shader 41 bind to kernel 1 '_Z6renderPjP4Nodejjff'
GPGPU-Sim uArch: core: 41, cta: 0 initialized @(1,0)
GPGPU-Sim uArch: Shader 42 bind to kernel 1 '_Z6renderPjP4Nodejjff'
GPGPU-Sim uArch: core: 42, cta: 0 initialized @(1,0)
GPGPU-Sim uArch: Shader 43 bind to kernel 1 '_Z6renderPjP4Nodejjff'
GPGPU-Sim uArch: core: 43, cta: 0 initialized @(1,0)
GPGPU-Sim uArch: Shader 44 bind to kernel 1 '_Z6renderPjP4Nodejjff'
GPGPU-Sim uArch: core: 44, cta: 0 initialized @(1,0)
GPGPU-Sim uArch: Shader 45 bind to kernel 1 '_Z6renderPjP4Nodejjff'
GPGPU-Sim uArch: core: 45, cta: 0 initialized @(1,0)
GPGPU-Sim uArch: Shader 46 bind to kernel 1 '_Z6renderPjP4Nodejjff'
GPGPU-Sim uArch: core: 46, cta: 0 initialized @(1,0)
GPGPU-Sim uArch: Shader 47 bind to kernel 1 '_Z6renderPjP4Nodejjff'
GPGPU-Sim uArch: core: 47, cta: 0 initialized @(1,0)
GPGPU-Sim uArch: Shader 48 bind to kernel 1 '_Z6renderPjP4Nodejjff'
GPGPU-Sim uArch: core: 48, cta: 0 initialized @(1,0)
GPGPU-Sim uArch: Shader 49 bind to kernel 1 '_Z6renderPjP4Nodejjff'
GPGPU-Sim uArch: core: 49, cta: 0 initialized @(1,0)
GPGPU-Sim uArch: Shader 50 bind to kernel 1 '_Z6renderPjP4Nodejjff'
GPGPU-Sim uArch: core: 50, cta: 0 initialized @(1,0)
GPGPU-Sim uArch: Shader 51 bind to kernel 1 '_Z6renderPjP4Nodejjff'
GPGPU-Sim uArch: core: 51, cta: 0 initialized @(1,0)
GPGPU-Sim uArch: Shader 52 bind to kernel 1 '_Z6renderPjP4Nodejjff'
GPGPU-Sim uArch: core: 52, cta: 0 initialized @(1,0)
GPGPU-Sim uArch: Shader 53 bind to kernel 1 '_Z6renderPjP4Nodejjff'
GPGPU-Sim uArch: core: 53, cta: 0 initialized @(1,0)
GPGPU-Sim uArch: Shader 54 bind to kernel 1 '_Z6renderPjP4Nodejjff'
GPGPU-Sim uArch: core: 54, cta: 0 initialized @(1,0)
GPGPU-Sim uArch: Shader 55 bind to kernel 1 '_Z6renderPjP4Nodejjff'
GPGPU-Sim uArch: core: 55, cta: 0 initialized @(1,0)
GPGPU-Sim uArch: Shader 56 bind to kernel 1 '_Z6renderPjP4Nodejjff'
GPGPU-Sim uArch: core: 56, cta: 0 initialized @(1,0)
GPGPU-Sim uArch: Shader 57 bind to kernel 1 '_Z6renderPjP4Nodejjff'
GPGPU-Sim uArch: core: 57, cta: 0 initialized @(1,0)
GPGPU-Sim uArch: Shader 58 bind to kernel 1 '_Z6renderPjP4Nodejjff'
GPGPU-Sim uArch: core: 58, cta: 0 initialized @(1,0)
GPGPU-Sim uArch: Shader 59 bind to kernel 1 '_Z6renderPjP4Nodejjff'
GPGPU-Sim uArch: core: 59, cta: 0 initialized @(1,0)
GPGPU-Sim uArch: Shader 60 bind to kernel 1 '_Z6renderPjP4Nodejjff'
GPGPU-Sim uArch: core: 60, cta: 0 initialized @(1,0)
GPGPU-Sim uArch: Shader 61 bind to kernel 1 '_Z6renderPjP4Nodejjff'
GPGPU-Sim uArch: core: 61, cta: 0 initialized @(1,0)
GPGPU-Sim uArch: Shader 62 bind to kernel 1 '_Z6renderPjP4Nodejjff'
GPGPU-Sim uArch: core: 62, cta: 0 initialized @(1,0)
GPGPU-Sim uArch: Shader 63 bind to kernel 1 '_Z6renderPjP4Nodejjff'
GPGPU-Sim uArch: core: 63, cta: 0 initialized @(1,0)
GPGPU-Sim uArch: Shader 64 bind to kernel 1 '_Z6renderPjP4Nodejjff'
GPGPU-Sim uArch: core: 64, cta: 0 initialized @(1,0)
GPGPU-Sim uArch: Shader 65 bind to kernel 1 '_Z6renderPjP4Nodejjff'
GPGPU-Sim uArch: core: 65, cta: 0 initialized @(1,0)
GPGPU-Sim uArch: Shader 66 bind to kernel 1 '_Z6renderPjP4Nodejjff'
GPGPU-Sim uArch: core: 66, cta: 0 initialized @(1,0)
GPGPU-Sim uArch: Shader 67 bind to kernel 1 '_Z6renderPjP4Nodejjff'
GPGPU-Sim uArch: core: 67, cta: 0 initialized @(1,0)
GPGPU-Sim uArch: Shader 0 bind to kernel 1 '_Z6renderPjP4Nodejjff'
GPGPU-Sim uArch: core:  0, cta: 0 initialized @(1,0)
GPGPU-Sim uArch: core:  1, cta: 1 initialized @(2,0)
GPGPU-Sim uArch: core:  2, cta: 1 initialized @(2,0)
GPGPU-Sim uArch: core:  3, cta: 1 initialized @(2,0)
GPGPU-Sim uArch: core:  4, cta: 1 initialized @(2,0)
GPGPU-Sim uArch: core:  5, cta: 1 initialized @(2,0)
GPGPU-Sim uArch: core:  6, cta: 1 initialized @(2,0)
GPGPU-Sim uArch: core:  7, cta: 1 initialized @(2,0)
GPGPU-Sim uArch: core:  8, cta: 1 initialized @(2,0)
GPGPU-Sim uArch: core:  9, cta: 1 initialized @(2,0)
GPGPU-Sim uArch: core: 10, cta: 1 initialized @(2,0)
GPGPU-Sim uArch: core: 11, cta: 1 initialized @(2,0)
GPGPU-Sim uArch: core: 12, cta: 1 initialized @(2,0)
GPGPU-Sim uArch: core: 13, cta: 1 initialized @(2,0)
GPGPU-Sim uArch: core: 14, cta: 1 initialized @(2,0)
GPGPU-Sim uArch: core: 15, cta: 1 initialized @(2,0)
GPGPU-Sim uArch: core: 16, cta: 1 initialized @(2,0)
GPGPU-Sim uArch: core: 17, cta: 1 initialized @(2,0)
GPGPU-Sim uArch: core: 18, cta: 1 initialized @(2,0)
GPGPU-Sim uArch: core: 19, cta: 1 initialized @(2,0)
GPGPU-Sim uArch: core: 20, cta: 1 initialized @(2,0)
GPGPU-Sim uArch: core: 21, cta: 1 initialized @(2,0)
GPGPU-Sim uArch: core: 22, cta: 1 initialized @(2,0)
GPGPU-Sim uArch: core: 23, cta: 1 initialized @(2,0)
GPGPU-Sim uArch: core: 24, cta: 1 initialized @(2,0)
GPGPU-Sim uArch: core: 25, cta: 1 initialized @(2,0)
GPGPU-Sim uArch: core: 26, cta: 1 initialized @(2,0)
GPGPU-Sim uArch: core: 27, cta: 1 initialized @(2,0)
GPGPU-Sim uArch: core: 28, cta: 1 initialized @(2,0)
GPGPU-Sim uArch: core: 29, cta: 1 initialized @(2,0)
GPGPU-Sim uArch: core: 30, cta: 1 initialized @(2,0)
GPGPU-Sim uArch: core: 31, cta: 1 initialized @(2,0)
GPGPU-Sim uArch: core: 32, cta: 1 initialized @(2,0)
GPGPU-Sim uArch: core: 33, cta: 1 initialized @(2,0)
GPGPU-Sim uArch: core: 34, cta: 1 initialized @(2,0)
GPGPU-Sim uArch: core: 35, cta: 1 initialized @(2,0)
GPGPU-Sim uArch: core: 36, cta: 1 initialized @(2,0)
GPGPU-Sim uArch: core: 37, cta: 1 initialized @(2,0)
GPGPU-Sim uArch: core: 38, cta: 1 initialized @(2,0)
GPGPU-Sim uArch: core: 39, cta: 1 initialized @(2,0)
GPGPU-Sim uArch: core: 40, cta: 1 initialized @(2,0)
GPGPU-Sim uArch: core: 41, cta: 1 initialized @(2,0)
GPGPU-Sim uArch: core: 42, cta: 1 initialized @(2,0)
GPGPU-Sim uArch: core: 43, cta: 1 initialized @(2,0)
GPGPU-Sim uArch: core: 44, cta: 1 initialized @(2,0)
GPGPU-Sim uArch: core: 45, cta: 1 initialized @(2,0)
GPGPU-Sim uArch: core: 46, cta: 1 initialized @(2,0)
GPGPU-Sim uArch: core: 47, cta: 1 initialized @(2,0)
GPGPU-Sim uArch: core: 48, cta: 1 initialized @(2,0)
GPGPU-Sim uArch: core: 49, cta: 1 initialized @(2,0)
GPGPU-Sim uArch: core: 50, cta: 1 initialized @(2,0)
GPGPU-Sim uArch: core: 51, cta: 1 initialized @(2,0)
GPGPU-Sim uArch: core: 52, cta: 1 initialized @(2,0)
GPGPU-Sim uArch: core: 53, cta: 1 initialized @(2,0)
GPGPU-Sim uArch: core: 54, cta: 1 initialized @(2,0)
GPGPU-Sim uArch: core: 55, cta: 1 initialized @(2,0)
GPGPU-Sim uArch: core: 56, cta: 1 initialized @(2,0)
GPGPU-Sim uArch: core: 57, cta: 1 initialized @(2,0)
GPGPU-Sim uArch: core: 58, cta: 1 initialized @(2,0)
GPGPU-Sim uArch: core: 59, cta: 1 initialized @(2,0)
GPGPU-Sim uArch: core: 60, cta: 1 initialized @(2,0)
GPGPU-Sim uArch: core: 61, cta: 1 initialized @(2,0)
GPGPU-Sim uArch: core: 62, cta: 1 initialized @(2,0)
GPGPU-Sim uArch: core: 63, cta: 1 initialized @(2,0)
GPGPU-Sim uArch: core: 64, cta: 1 initialized @(2,0)
GPGPU-Sim uArch: core: 65, cta: 1 initialized @(2,0)
GPGPU-Sim uArch: core: 66, cta: 1 initialized @(2,0)
GPGPU-Sim uArch: core: 67, cta: 1 initialized @(2,0)
GPGPU-Sim uArch: core:  0, cta: 1 initialized @(2,0)
GPGPU-Sim uArch: core:  1, cta: 2 initialized @(3,0)
GPGPU-Sim uArch: core:  2, cta: 2 initialized @(3,0)
GPGPU-Sim uArch: core:  3, cta: 2 initialized @(3,0)
GPGPU-Sim uArch: core:  4, cta: 2 initialized @(3,0)
GPGPU-Sim uArch: core:  5, cta: 2 initialized @(3,0)
GPGPU-Sim uArch: core:  6, cta: 2 initialized @(3,0)
GPGPU-Sim uArch: core:  7, cta: 2 initialized @(3,0)
GPGPU-Sim uArch: core:  8, cta: 2 initialized @(3,0)
GPGPU-Sim uArch: core:  9, cta: 2 initialized @(3,0)
GPGPU-Sim uArch: core: 10, cta: 2 initialized @(3,0)
GPGPU-Sim uArch: core: 11, cta: 2 initialized @(3,0)
GPGPU-Sim uArch: core: 12, cta: 2 initialized @(3,0)
GPGPU-Sim uArch: core: 13, cta: 2 initialized @(3,0)
GPGPU-Sim uArch: core: 14, cta: 2 initialized @(3,0)
GPGPU-Sim uArch: core: 15, cta: 2 initialized @(3,0)
GPGPU-Sim uArch: core: 16, cta: 2 initialized @(3,0)
GPGPU-Sim uArch: core: 17, cta: 2 initialized @(3,0)
GPGPU-Sim uArch: core: 18, cta: 2 initialized @(3,0)
GPGPU-Sim uArch: core: 19, cta: 2 initialized @(3,0)
GPGPU-Sim uArch: core: 20, cta: 2 initialized @(3,0)
GPGPU-Sim uArch: core: 21, cta: 2 initialized @(3,0)
GPGPU-Sim uArch: core: 22, cta: 2 initialized @(3,0)
GPGPU-Sim uArch: core: 23, cta: 2 initialized @(3,0)
GPGPU-Sim uArch: core: 24, cta: 2 initialized @(3,0)
GPGPU-Sim uArch: core: 25, cta: 2 initialized @(3,0)
GPGPU-Sim uArch: core: 26, cta: 2 initialized @(3,0)
GPGPU-Sim uArch: core: 27, cta: 2 initialized @(3,0)
GPGPU-Sim uArch: core: 28, cta: 2 initialized @(3,0)
GPGPU-Sim uArch: core: 29, cta: 2 initialized @(3,0)
GPGPU-Sim uArch: core: 30, cta: 2 initialized @(3,0)
GPGPU-Sim uArch: core: 31, cta: 2 initialized @(3,0)
GPGPU-Sim uArch: core: 32, cta: 2 initialized @(3,0)
GPGPU-Sim uArch: core: 33, cta: 2 initialized @(3,0)
GPGPU-Sim uArch: core: 34, cta: 2 initialized @(3,0)
GPGPU-Sim uArch: core: 35, cta: 2 initialized @(3,0)
GPGPU-Sim uArch: core: 36, cta: 2 initialized @(3,0)
GPGPU-Sim uArch: core: 37, cta: 2 initialized @(3,0)
GPGPU-Sim uArch: core: 38, cta: 2 initialized @(3,0)
GPGPU-Sim uArch: core: 39, cta: 2 initialized @(3,0)
GPGPU-Sim uArch: core: 40, cta: 2 initialized @(3,0)
GPGPU-Sim uArch: core: 41, cta: 2 initialized @(3,0)
GPGPU-Sim uArch: core: 42, cta: 2 initialized @(3,0)
GPGPU-Sim uArch: core: 43, cta: 2 initialized @(3,0)
GPGPU-Sim uArch: core: 44, cta: 2 initialized @(3,0)
GPGPU-Sim uArch: core: 45, cta: 2 initialized @(3,0)
GPGPU-Sim uArch: core: 46, cta: 2 initialized @(3,0)
GPGPU-Sim uArch: core: 47, cta: 2 initialized @(3,0)
GPGPU-Sim uArch: core: 48, cta: 2 initialized @(3,0)
GPGPU-Sim uArch: core: 49, cta: 2 initialized @(3,0)
GPGPU-Sim uArch: core: 50, cta: 2 initialized @(3,0)
GPGPU-Sim uArch: core: 51, cta: 2 initialized @(3,0)
GPGPU-Sim uArch: core: 52, cta: 2 initialized @(3,0)
GPGPU-Sim uArch: core: 53, cta: 2 initialized @(3,0)
GPGPU-Sim uArch: core: 54, cta: 2 initialized @(3,0)
GPGPU-Sim uArch: core: 55, cta: 2 initialized @(3,0)
GPGPU-Sim uArch: core: 56, cta: 2 initialized @(3,0)
GPGPU-Sim uArch: core: 57, cta: 2 initialized @(3,0)
GPGPU-Sim uArch: core: 58, cta: 2 initialized @(3,0)
GPGPU-Sim uArch: core: 59, cta: 2 initialized @(3,0)
GPGPU-Sim uArch: core: 60, cta: 2 initialized @(3,0)
GPGPU-Sim uArch: core: 61, cta: 2 initialized @(3,0)
GPGPU-Sim uArch: core: 62, cta: 2 initialized @(3,0)
GPGPU-Sim uArch: core: 63, cta: 2 initialized @(3,0)
GPGPU-Sim uArch: core: 64, cta: 2 initialized @(3,0)
GPGPU-Sim uArch: core: 65, cta: 2 initialized @(3,0)
GPGPU-Sim uArch: core: 66, cta: 2 initialized @(3,0)
GPGPU-Sim uArch: core: 67, cta: 2 initialized @(3,0)
GPGPU-Sim uArch: core:  0, cta: 2 initialized @(3,0)
GPGPU-Sim uArch: core:  1, cta: 3 initialized @(4,0)
GPGPU-Sim uArch: core:  2, cta: 3 initialized @(4,0)
GPGPU-Sim uArch: core:  3, cta: 3 initialized @(4,0)
GPGPU-Sim uArch: core:  4, cta: 3 initialized @(4,0)
GPGPU-Sim uArch: core:  5, cta: 3 initialized @(4,0)
GPGPU-Sim uArch: core:  6, cta: 3 initialized @(4,0)
GPGPU-Sim uArch: core:  7, cta: 3 initialized @(4,0)
GPGPU-Sim uArch: core:  8, cta: 3 initialized @(4,0)
GPGPU-Sim uArch: core:  9, cta: 3 initialized @(4,0)
GPGPU-Sim uArch: core: 10, cta: 3 initialized @(4,0)
GPGPU-Sim uArch: core: 11, cta: 3 initialized @(4,0)
GPGPU-Sim uArch: core: 12, cta: 3 initialized @(4,0)
GPGPU-Sim uArch: core: 13, cta: 3 initialized @(4,0)
GPGPU-Sim uArch: core: 14, cta: 3 initialized @(4,0)
GPGPU-Sim uArch: core: 15, cta: 3 initialized @(4,0)
GPGPU-Sim uArch: core: 16, cta: 3 initialized @(4,0)
GPGPU-Sim uArch: core: 17, cta: 3 initialized @(4,0)
GPGPU-Sim uArch: core: 18, cta: 3 initialized @(4,0)
GPGPU-Sim uArch: core: 19, cta: 3 initialized @(4,0)
GPGPU-Sim uArch: core: 20, cta: 3 initialized @(4,0)
GPGPU-Sim uArch: core: 21, cta: 3 initialized @(4,0)
GPGPU-Sim uArch: core: 22, cta: 3 initialized @(4,0)
GPGPU-Sim uArch: core: 23, cta: 3 initialized @(4,0)
GPGPU-Sim uArch: core: 24, cta: 3 initialized @(4,0)
GPGPU-Sim uArch: core: 25, cta: 3 initialized @(4,0)
GPGPU-Sim uArch: core: 26, cta: 3 initialized @(4,0)
GPGPU-Sim uArch: core: 27, cta: 3 initialized @(4,0)
GPGPU-Sim uArch: core: 28, cta: 3 initialized @(4,0)
GPGPU-Sim uArch: core: 29, cta: 3 initialized @(4,0)
GPGPU-Sim uArch: core: 30, cta: 3 initialized @(4,0)
GPGPU-Sim uArch: core: 31, cta: 3 initialized @(4,0)
GPGPU-Sim uArch: core: 32, cta: 3 initialized @(4,0)
GPGPU-Sim uArch: core: 33, cta: 3 initialized @(4,0)
GPGPU-Sim uArch: core: 34, cta: 3 initialized @(4,0)
GPGPU-Sim uArch: core: 35, cta: 3 initialized @(4,0)
GPGPU-Sim uArch: core: 36, cta: 3 initialized @(4,0)
GPGPU-Sim uArch: core: 37, cta: 3 initialized @(4,0)
GPGPU-Sim uArch: core: 38, cta: 3 initialized @(4,0)
GPGPU-Sim uArch: core: 39, cta: 3 initialized @(4,0)
GPGPU-Sim uArch: core: 40, cta: 3 initialized @(4,0)
GPGPU-Sim uArch: core: 41, cta: 3 initialized @(4,0)
GPGPU-Sim uArch: core: 42, cta: 3 initialized @(4,0)
GPGPU-Sim uArch: core: 43, cta: 3 initialized @(4,0)
GPGPU-Sim uArch: core: 44, cta: 3 initialized @(4,0)
GPGPU-Sim uArch: core: 45, cta: 3 initialized @(4,0)
GPGPU-Sim uArch: core: 46, cta: 3 initialized @(4,0)
GPGPU-Sim uArch: core: 47, cta: 3 initialized @(4,0)
GPGPU-Sim uArch: core: 48, cta: 3 initialized @(4,0)
GPGPU-Sim uArch: core: 49, cta: 3 initialized @(4,0)
GPGPU-Sim uArch: core: 50, cta: 3 initialized @(4,0)
GPGPU-Sim uArch: core: 51, cta: 3 initialized @(4,0)
GPGPU-Sim uArch: core: 52, cta: 3 initialized @(4,0)
GPGPU-Sim uArch: core: 53, cta: 3 initialized @(4,0)
GPGPU-Sim uArch: core: 54, cta: 3 initialized @(4,0)
GPGPU-Sim uArch: core: 55, cta: 3 initialized @(4,0)
GPGPU-Sim uArch: core: 56, cta: 3 initialized @(4,0)
GPGPU-Sim uArch: core: 57, cta: 3 initialized @(4,0)
GPGPU-Sim uArch: core: 58, cta: 3 initialized @(4,0)
GPGPU-Sim uArch: core: 59, cta: 3 initialized @(4,0)
GPGPU-Sim uArch: core: 60, cta: 3 initialized @(4,0)
GPGPU-Sim uArch: core: 61, cta: 3 initialized @(4,0)
GPGPU-Sim uArch: core: 62, cta: 3 initialized @(4,0)
GPGPU-Sim uArch: core: 63, cta: 3 initialized @(4,0)
GPGPU-Sim uArch: core: 64, cta: 3 initialized @(4,0)
GPGPU-Sim uArch: core: 65, cta: 3 initialized @(4,0)
GPGPU-Sim uArch: core: 66, cta: 3 initialized @(4,0)
GPGPU-Sim uArch: core: 67, cta: 3 initialized @(4,0)
GPGPU-Sim uArch: core:  0, cta: 3 initialized @(4,0)
GPGPU-Sim uArch: core:  1, cta: 4 initialized @(5,0)
GPGPU-Sim uArch: core:  2, cta: 4 initialized @(5,0)
GPGPU-Sim uArch: core:  3, cta: 4 initialized @(5,0)
GPGPU-Sim uArch: core:  4, cta: 4 initialized @(5,0)
GPGPU-Sim uArch: core:  5, cta: 4 initialized @(5,0)
GPGPU-Sim uArch: core:  6, cta: 4 initialized @(5,0)
GPGPU-Sim uArch: core:  7, cta: 4 initialized @(5,0)
GPGPU-Sim uArch: core:  8, cta: 4 initialized @(5,0)
GPGPU-Sim uArch: core:  9, cta: 4 initialized @(5,0)
GPGPU-Sim uArch: core: 10, cta: 4 initialized @(5,0)
GPGPU-Sim uArch: core: 11, cta: 4 initialized @(5,0)
GPGPU-Sim uArch: core: 12, cta: 4 initialized @(5,0)
GPGPU-Sim uArch: core: 13, cta: 4 initialized @(5,0)
GPGPU-Sim uArch: core: 14, cta: 4 initialized @(5,0)
GPGPU-Sim uArch: core: 15, cta: 4 initialized @(5,0)
GPGPU-Sim uArch: core: 16, cta: 4 initialized @(5,0)
GPGPU-Sim uArch: core: 17, cta: 4 initialized @(5,0)
GPGPU-Sim uArch: core: 18, cta: 4 initialized @(5,0)
GPGPU-Sim uArch: core: 19, cta: 4 initialized @(5,0)
GPGPU-Sim uArch: core: 20, cta: 4 initialized @(5,0)
GPGPU-Sim uArch: core: 21, cta: 4 initialized @(5,0)
GPGPU-Sim uArch: core: 22, cta: 4 initialized @(5,0)
GPGPU-Sim uArch: core: 23, cta: 4 initialized @(5,0)
GPGPU-Sim uArch: core: 24, cta: 4 initialized @(5,0)
GPGPU-Sim uArch: core: 25, cta: 4 initialized @(5,0)
GPGPU-Sim uArch: core: 26, cta: 4 initialized @(5,0)
GPGPU-Sim uArch: core: 27, cta: 4 initialized @(5,0)
GPGPU-Sim uArch: core: 28, cta: 4 initialized @(5,0)
GPGPU-Sim uArch: core: 29, cta: 4 initialized @(5,0)
GPGPU-Sim uArch: core: 30, cta: 4 initialized @(5,0)
GPGPU-Sim uArch: core: 31, cta: 4 initialized @(5,0)
GPGPU-Sim uArch: core: 32, cta: 4 initialized @(5,0)
GPGPU-Sim uArch: core: 33, cta: 4 initialized @(5,0)
GPGPU-Sim uArch: core: 34, cta: 4 initialized @(5,0)
GPGPU-Sim uArch: core: 35, cta: 4 initialized @(5,0)
GPGPU-Sim uArch: core: 36, cta: 4 initialized @(5,0)
GPGPU-Sim uArch: core: 37, cta: 4 initialized @(5,0)
GPGPU-Sim uArch: core: 38, cta: 4 initialized @(5,0)
GPGPU-Sim uArch: core: 39, cta: 4 initialized @(5,0)
GPGPU-Sim uArch: core: 40, cta: 4 initialized @(5,0)
GPGPU-Sim uArch: core: 41, cta: 4 initialized @(5,0)
GPGPU-Sim uArch: core: 42, cta: 4 initialized @(5,0)
GPGPU-Sim uArch: core: 43, cta: 4 initialized @(5,0)
GPGPU-Sim uArch: core: 44, cta: 4 initialized @(5,0)
GPGPU-Sim uArch: core: 45, cta: 4 initialized @(5,0)
GPGPU-Sim uArch: core: 46, cta: 4 initialized @(5,0)
GPGPU-Sim uArch: core: 47, cta: 4 initialized @(5,0)
GPGPU-Sim uArch: core: 48, cta: 4 initialized @(5,0)
GPGPU-Sim uArch: core: 49, cta: 4 initialized @(5,0)
GPGPU-Sim uArch: core: 50, cta: 4 initialized @(5,0)
GPGPU-Sim uArch: core: 51, cta: 4 initialized @(5,0)
GPGPU-Sim uArch: core: 52, cta: 4 initialized @(5,0)
GPGPU-Sim uArch: core: 53, cta: 4 initialized @(5,0)
GPGPU-Sim uArch: core: 54, cta: 4 initialized @(5,0)
GPGPU-Sim uArch: core: 55, cta: 4 initialized @(5,0)
GPGPU-Sim uArch: core: 56, cta: 4 initialized @(5,0)
GPGPU-Sim uArch: core: 57, cta: 4 initialized @(5,0)
GPGPU-Sim uArch: core: 58, cta: 4 initialized @(5,0)
GPGPU-Sim uArch: core: 59, cta: 4 initialized @(5,0)
GPGPU-Sim uArch: core: 60, cta: 4 initialized @(5,0)
GPGPU-Sim uArch: core: 61, cta: 4 initialized @(5,0)
GPGPU-Sim uArch: core: 62, cta: 4 initialized @(5,0)
GPGPU-Sim uArch: core: 63, cta: 4 initialized @(5,0)
GPGPU-Sim uArch: core: 64, cta: 4 initialized @(5,0)
GPGPU-Sim uArch: core: 65, cta: 4 initialized @(5,0)
GPGPU-Sim uArch: core: 66, cta: 4 initialized @(5,0)
GPGPU-Sim uArch: core: 67, cta: 4 initialized @(5,0)
GPGPU-Sim uArch: core:  0, cta: 4 initialized @(5,0)
GPGPU-Sim uArch: cycles simulated: 500  inst.: 23168 (ipc=46.3) sim_rate=11584 (inst/sec) elapsed = 0:0:00:02 / Sat Apr 24 01:45:49 2021
GPGPU-Sim PTX: 100000 instructions simulated : ctaid=(12,8,0) tid=(15,5,0)
GPGPU-Sim PTX: 200000 instructions simulated : ctaid=(4,14,0) tid=(15,5,0)
GPGPU-Sim PTX: 300000 instructions simulated : ctaid=(9,3,0) tid=(15,7,0)
GPGPU-Sim PTX: 400000 instructions simulated : ctaid=(5,0,0) tid=(15,1,0)
GPGPU-Sim PTX: 500000 instructions simulated : ctaid=(0,14,0) tid=(15,1,0)
GPGPU-Sim uArch: cycles simulated: 1000  inst.: 487872 (ipc=487.9) sim_rate=121968 (inst/sec) elapsed = 0:0:00:04 / Sat Apr 24 01:45:51 2021
GPGPU-Sim PTX: 600000 instructions simulated : ctaid=(6,6,0) tid=(15,3,0)
GPGPU-Sim PTX: 700000 instructions simulated : ctaid=(5,3,0) tid=(15,7,0)
GPGPU-Sim PTX: 800000 instructions simulated : ctaid=(6,17,0) tid=(15,1,0)
GPGPU-Sim PTX: 900000 instructions simulated : ctaid=(8,20,0) tid=(15,5,0)
GPGPU-Sim PTX: 1000000 instructions simulated : ctaid=(10,4,0) tid=(15,5,0)
GPGPU-Sim uArch: cycles simulated: 1500  inst.: 993056 (ipc=662.0) sim_rate=165509 (inst/sec) elapsed = 0:0:00:06 / Sat Apr 24 01:45:53 2021
GPGPU-Sim PTX: 1100000 instructions simulated : ctaid=(7,17,0) tid=(15,5,0)
GPGPU-Sim uArch: cycles simulated: 2000  inst.: 1082240 (ipc=541.1) sim_rate=135280 (inst/sec) elapsed = 0:0:00:08 / Sat Apr 24 01:45:55 2021
GPGPU-Sim PTX: 1200000 instructions simulated : ctaid=(3,4,0) tid=(15,3,0)
GPGPU-Sim uArch: cycles simulated: 2500  inst.: 1177696 (ipc=471.1) sim_rate=117769 (inst/sec) elapsed = 0:0:00:10 / Sat Apr 24 01:45:57 2021
GPGPU-Sim PTX: 1300000 instructions simulated : ctaid=(15,7,0) tid=(15,5,0)
GPGPU-Sim uArch: cycles simulated: 3000  inst.: 1384128 (ipc=461.4) sim_rate=106471 (inst/sec) elapsed = 0:0:00:13 / Sat Apr 24 01:46:00 2021
GPGPU-Sim PTX: 1400000 instructions simulated : ctaid=(7,1,0) tid=(15,5,0)
GPGPU-Sim PTX: 1500000 instructions simulated : ctaid=(1,12,0) tid=(15,1,0)
GPGPU-Sim PTX: 1600000 instructions simulated : ctaid=(14,17,0) tid=(15,5,0)
GPGPU-Sim PTX: 1700000 instructions simulated : ctaid=(10,13,0) tid=(15,3,0)
GPGPU-Sim uArch: cycles simulated: 3500  inst.: 1718624 (ipc=491.0) sim_rate=114574 (inst/sec) elapsed = 0:0:00:15 / Sat Apr 24 01:46:02 2021
GPGPU-Sim PTX: 1800000 instructions simulated : ctaid=(6,15,0) tid=(15,1,0)
GPGPU-Sim PTX: 1900000 instructions simulated : ctaid=(10,13,0) tid=(15,1,0)
GPGPU-Sim PTX: 2000000 instructions simulated : ctaid=(15,9,0) tid=(15,5,0)
GPGPU-Sim uArch: cycles simulated: 4000  inst.: 2076320 (ipc=519.1) sim_rate=122136 (inst/sec) elapsed = 0:0:00:17 / Sat Apr 24 01:46:04 2021
GPGPU-Sim PTX: 2100000 instructions simulated : ctaid=(8,14,0) tid=(15,5,0)
GPGPU-Sim PTX: 2200000 instructions simulated : ctaid=(7,17,0) tid=(15,3,0)
GPGPU-Sim PTX: 2300000 instructions simulated : ctaid=(10,9,0) tid=(15,5,0)
GPGPU-Sim PTX: 2400000 instructions simulated : ctaid=(0,5,0) tid=(15,1,0)
GPGPU-Sim PTX: 2500000 instructions simulated : ctaid=(12,3,0) tid=(15,3,0)
GPGPU-Sim PTX: 2600000 instructions simulated : ctaid=(9,19,0) tid=(15,1,0)
GPGPU-Sim uArch: cycles simulated: 4500  inst.: 2596256 (ipc=576.9) sim_rate=129812 (inst/sec) elapsed = 0:0:00:20 / Sat Apr 24 01:46:07 2021
GPGPU-Sim PTX: 2700000 instructions simulated : ctaid=(14,10,0) tid=(15,3,0)
GPGPU-Sim PTX: 2800000 instructions simulated : ctaid=(13,10,0) tid=(15,1,0)
GPGPU-Sim PTX: 2900000 instructions simulated : ctaid=(1,15,0) tid=(15,1,0)
GPGPU-Sim uArch: cycles simulated: 5000  inst.: 2945344 (ipc=589.1) sim_rate=128058 (inst/sec) elapsed = 0:0:00:23 / Sat Apr 24 01:46:10 2021
GPGPU-Sim PTX: 3000000 instructions simulated : ctaid=(12,15,0) tid=(15,3,0)
GPGPU-Sim PTX: 3100000 instructions simulated : ctaid=(12,1,0) tid=(15,5,0)
GPGPU-Sim PTX: 3200000 instructions simulated : ctaid=(11,1,0) tid=(15,3,0)
GPGPU-Sim PTX: 3300000 instructions simulated : ctaid=(8,2,0) tid=(15,7,0)
GPGPU-Sim PTX: 3400000 instructions simulated : ctaid=(9,11,0) tid=(15,7,0)
GPGPU-Sim PTX: 3500000 instructions simulated : ctaid=(14,8,0) tid=(15,7,0)
GPGPU-Sim uArch: cycles simulated: 5500  inst.: 3483296 (ipc=633.3) sim_rate=133972 (inst/sec) elapsed = 0:0:00:26 / Sat Apr 24 01:46:13 2021
GPGPU-Sim PTX: 3600000 instructions simulated : ctaid=(14,8,0) tid=(15,1,0)
GPGPU-Sim PTX: 3700000 instructions simulated : ctaid=(8,2,0) tid=(15,3,0)
GPGPU-Sim PTX: 3800000 instructions simulated : ctaid=(1,8,0) tid=(15,1,0)
GPGPU-Sim PTX: 3900000 instructions simulated : ctaid=(4,12,0) tid=(15,5,0)
GPGPU-Sim PTX: 4000000 instructions simulated : ctaid=(2,9,0) tid=(15,5,0)
GPGPU-Sim PTX: 4100000 instructions simulated : ctaid=(13,2,0) tid=(15,7,0)
GPGPU-Sim PTX: 4200000 instructions simulated : ctaid=(11,19,0) tid=(15,5,0)
GPGPU-Sim PTX: 4300000 instructions simulated : ctaid=(13,19,0) tid=(15,5,0)
GPGPU-Sim PTX: 4400000 instructions simulated : ctaid=(14,15,0) tid=(15,5,0)
GPGPU-Sim PTX: 4500000 instructions simulated : ctaid=(12,17,0) tid=(15,7,0)
GPGPU-Sim PTX: WARNING (_1.ptx:936) ** reading undefined register '%r129' (cuid:0). Setting to 0X00000000. This is okay if you are simulating the native ISA
GPGPU-Sim uArch: cycles simulated: 6000  inst.: 4480608 (ipc=746.8) sim_rate=154503 (inst/sec) elapsed = 0:0:00:29 / Sat Apr 24 01:46:16 2021
GPGPU-Sim PTX: 4600000 instructions simulated : ctaid=(15,4,0) tid=(15,5,0)
GPGPU-Sim PTX: 4700000 instructions simulated : ctaid=(15,5,0) tid=(15,1,0)
GPGPU-Sim PTX: 4800000 instructions simulated : ctaid=(2,15,0) tid=(15,1,0)
GPGPU-Sim PTX: 4900000 instructions simulated : ctaid=(3,20,0) tid=(15,7,0)
GPGPU-Sim PTX: 5000000 instructions simulated : ctaid=(7,3,0) tid=(15,5,0)
GPGPU-Sim PTX: 5100000 instructions simulated : ctaid=(5,20,0) tid=(15,3,0)
GPGPU-Sim PTX: 5200000 instructions simulated : ctaid=(9,20,0) tid=(15,1,0)
GPGPU-Sim PTX: 5300000 instructions simulated : ctaid=(5,1,0) tid=(15,5,0)
GPGPU-Sim PTX: 5400000 instructions simulated : ctaid=(7,9,0) tid=(15,3,0)
GPGPU-Sim PTX: 5500000 instructions simulated : ctaid=(4,14,0) tid=(15,1,0)
GPGPU-Sim PTX: 5600000 instructions simulated : ctaid=(10,16,0) tid=(15,7,0)
GPGPU-Sim uArch: cycles simulated: 6500  inst.: 5576192 (ipc=857.9) sim_rate=168975 (inst/sec) elapsed = 0:0:00:33 / Sat Apr 24 01:46:20 2021
GPGPU-Sim PTX: 5700000 instructions simulated : ctaid=(8,20,0) tid=(15,3,0)
GPGPU-Sim PTX: 5800000 instructions simulated : ctaid=(3,13,0) tid=(15,1,0)
GPGPU-Sim PTX: 5900000 instructions simulated : ctaid=(5,11,0) tid=(15,1,0)
GPGPU-Sim PTX: 6000000 instructions simulated : ctaid=(6,20,0) tid=(15,7,0)
GPGPU-Sim PTX: 6100000 instructions simulated : ctaid=(14,18,0) tid=(15,3,0)
GPGPU-Sim PTX: 6200000 instructions simulated : ctaid=(0,13,0) tid=(15,3,0)
GPGPU-Sim PTX: 6300000 instructions simulated : ctaid=(8,7,0) tid=(15,3,0)
GPGPU-Sim PTX: 6400000 instructions simulated : ctaid=(1,15,0) tid=(4,0,0)
GPGPU-Sim PTX: 6500000 instructions simulated : ctaid=(1,6,0) tid=(0,6,0)
GPGPU-Sim PTX: 6600000 instructions simulated : ctaid=(3,19,0) tid=(11,0,0)
[...]
dram[10]:       1445      1590      1183      1219      1039      1410      1048      1299       385       358      1068      1426      1103      1352       413       603
dram[11]:       1891      1585      1552      1803       739       904      1525      1351       392       374      1007      1145      1529      1544       584       943
dram[12]:       1981      2145      1568      1591      1647       903      1226      1740       540       564      1693      1249      1219      1689       557       507
dram[13]:       1855      2484      1205      1393      1164      1334      1397      1609       482       495      1542      1687      1329      1267       683      1075
dram[14]:       1900      1587      1222      1126       976      1153      1188      1685       340       332      1290      1357      1212      1699       309       325
dram[15]:       1748      1727      1225      1970       592      1046      1474      1245       431       402      1516      1205      1297      1116       735       966
Memory Partition 0: 
Cache L2_bank_000:
MSHR contents

Cache L2_bank_001:
MSHR contents

In Dram Latency Queue (total = 0): 
DRAM[0]: 16 bks, busW=4 BL=8 CL=12, tRRD=2 tCCD=6, tRCD=12 tRAS=28 tRP=12 tRC=40
n_cmd=84182 n_nop=80772 n_act=256 n_pre=240 n_req=1551 n_rd=1848 n_write=1066 bw_util=0.06923
n_activity=12925 dram_eff=0.4509
bk0: 236a 78207i bk1: 196a 78440i bk2: 164a 81140i bk3: 148a 81570i bk4: 120a 82988i bk5: 106a 82862i bk6: 124a 82136i bk7: 128a 81990i bk8: 74a 83841i bk9: 70a 83928i bk10: 138a 80925i bk11: 112a 81034i bk12: 100a 81565i bk13: 84a 81598i bk14: 24a 83938i bk15: 24a 83915i 
dram_util_bins: 0 0 0 0 0 0 0 0 0 0
dram_eff_bins: 0 0 0 0 0 0 0 0 0 0
mrqq: max=16 avg=1.23434
Memory Partition 1: 
Cache L2_bank_002:
MSHR contents

Cache L2_bank_003:
MSHR contents

In Dram Latency Queue (total = 0): 
DRAM[1]: 16 bks, busW=4 BL=8 CL=12, tRRD=2 tCCD=6, tRCD=12 tRAS=28 tRP=12 tRC=40
n_cmd=84182 n_nop=80778 n_act=256 n_pre=240 n_req=1548 n_rd=1846 n_write=1062 bw_util=0.06909
n_activity=13016 dram_eff=0.4468
bk0: 238a 77761i bk1: 194a 78160i bk2: 166a 81140i bk3: 146a 81179i bk4: 118a 82950i bk5: 104a 82960i bk6: 128a 81444i bk7: 130a 81859i bk8: 74a 83900i bk9: 68a 83952i bk10: 138a 80855i bk11: 112a 80710i bk12: 100a 81490i bk13: 84a 81631i bk14: 22a 83910i bk15: 24a 83989i 
dram_util_bins: 0 0 0 0 0 0 0 0 0 0
dram_eff_bins: 0 0 0 0 0 0 0 0 0 0
mrqq: max=16 avg=1.15818
Memory Partition 2: 
Cache L2_bank_004:
MSHR contents

Cache L2_bank_005:
MSHR contents

In Dram Latency Queue (total = 0): 
DRAM[2]: 16 bks, busW=4 BL=8 CL=12, tRRD=2 tCCD=6, tRCD=12 tRAS=28 tRP=12 tRC=40
n_cmd=84182 n_nop=80820 n_act=234 n_pre=218 n_req=1547 n_rd=1854 n_write=1056 bw_util=0.06914
n_activity=12938 dram_eff=0.4498
bk0: 236a 77427i bk1: 200a 77667i bk2: 164a 81073i bk3: 146a 81331i bk4: 120a 83079i bk5: 104a 83011i bk6: 132a 81996i bk7: 128a 81623i bk8: 70a 83931i bk9: 72a 83911i bk10: 134a 81304i bk11: 112a 81028i bk12: 102a 81366i bk13: 88a 81904i bk14: 22a 84002i bk15: 24a 84030i 
dram_util_bins: 0 0 0 0 0 0 0 0 0 0
dram_eff_bins: 0 0 0 0 0 0 0 0 0 0
mrqq: max=16 avg=1.2643
Memory Partition 3: 
Cache L2_bank_006:
MSHR contents

Cache L2_bank_007:
MSHR contents

In Dram Latency Queue (total = 0): 
DRAM[3]: 16 bks, busW=4 BL=8 CL=12, tRRD=2 tCCD=6, tRCD=12 tRAS=28 tRP=12 tRC=40
n_cmd=84182 n_nop=80842 n_act=245 n_pre=229 n_req=1520 n_rd=1822 n_write=1044 bw_util=0.06809
n_activity=11986 dram_eff=0.4782
bk0: 224a 77483i bk1: 200a 77589i bk2: 162a 81192i bk3: 144a 81155i bk4: 116a 82981i bk5: 102a 82959i bk6: 128a 81927i bk7: 126a 81759i bk8: 70a 83980i bk9: 74a 83907i bk10: 136a 81097i bk11: 112a 80856i bk12: 96a 81432i bk13: 82a 81317i bk14: 24a 83895i bk15: 26a 83985i 
dram_util_bins: 0 0 0 0 0 0 0 0 0 0
dram_eff_bins: 0 0 0 0 0 0 0 0 0 0
mrqq: max=16 avg=1.25245
Memory Partition 4: 
Cache L2_bank_008:
MSHR contents

Cache L2_bank_009:
MSHR contents

In Dram Latency Queue (total = 0): 
DRAM[4]: 16 bks, busW=4 BL=8 CL=12, tRRD=2 tCCD=6, tRCD=12 tRAS=28 tRP=12 tRC=40
n_cmd=84182 n_nop=80749 n_act=239 n_pre=223 n_req=1581 n_rd=1898 n_write=1073 bw_util=0.07059
n_activity=12866 dram_eff=0.4618
bk0: 214a 77533i bk1: 204a 77533i bk2: 172a 80580i bk3: 164a 81112i bk4: 128a 82809i bk5: 106a 82867i bk6: 132a 81834i bk7: 126a 81644i bk8: 68a 83993i bk9: 70a 83924i bk10: 134a 80882i bk11: 124a 80925i bk12: 102a 81065i bk13: 86a 81439i bk14: 34a 83882i bk15: 34a 83935i 
dram_util_bins: 0 0 0 0 0 0 0 0 0 0
dram_eff_bins: 0 0 0 0 0 0 0 0 0 0
mrqq: max=16 avg=1.25155
Memory Partition 5: 
Cache L2_bank_010:
MSHR contents

Cache L2_bank_011:
MSHR contents

In Dram Latency Queue (total = 0): 
DRAM[5]: 16 bks, busW=4 BL=8 CL=12, tRRD=2 tCCD=6, tRCD=12 tRAS=28 tRP=12 tRC=40
n_cmd=84182 n_nop=80748 n_act=254 n_pre=238 n_req=1567 n_rd=1878 n_write=1064 bw_util=0.0699
n_activity=12595 dram_eff=0.4672
bk0: 216a 77672i bk1: 206a 77656i bk2: 172a 80774i bk3: 156a 81048i bk4: 126a 82915i bk5: 108a 82959i bk6: 130a 81954i bk7: 128a 82043i bk8: 62a 84064i bk9: 70a 83958i bk10: 134a 80610i bk11: 120a 80878i bk12: 98a 81311i bk13: 86a 81558i bk14: 32a 83916i bk15: 34a 83929i 
dram_util_bins: 0 0 0 0 0 0 0 0 0 0
dram_eff_bins: 0 0 0 0 0 0 0 0 0 0
mrqq: max=16 avg=1.25751
Memory Partition 6: 
Cache L2_bank_012:
MSHR contents

Cache L2_bank_013:
MSHR contents

In Dram Latency Queue (total = 0): 
DRAM[6]: 16 bks, busW=4 BL=8 CL=12, tRRD=2 tCCD=6, tRCD=12 tRAS=28 tRP=12 tRC=40
n_cmd=84182 n_nop=80759 n_act=221 n_pre=205 n_req=1591 n_rd=1926 n_write=1071 bw_util=0.0712
n_activity=13224 dram_eff=0.4533
bk0: 208a 77848i bk1: 210a 77695i bk2: 190a 80915i bk3: 162a 81409i bk4: 118a 83032i bk5: 104a 82938i bk6: 132a 81852i bk7: 128a 81865i bk8: 68a 84010i bk9: 84a 83888i bk10: 124a 81033i bk11: 122a 80944i bk12: 114a 81258i bk13: 98a 81482i bk14: 38a 83916i bk15: 26a 84043i 
dram_util_bins: 0 0 0 0 0 0 0 0 0 0
dram_eff_bins: 0 0 0 0 0 0 0 0 0 0
mrqq: max=16 avg=1.26457
Memory Partition 7: 
Cache L2_bank_014:
MSHR contents

Cache L2_bank_015:
MSHR contents

In Dram Latency Queue (total = 0): 
DRAM[7]: 16 bks, busW=4 BL=8 CL=12, tRRD=2 tCCD=6, tRCD=12 tRAS=28 tRP=12 tRC=40
n_cmd=84182 n_nop=80716 n_act=258 n_pre=242 n_req=1571 n_rd=1914 n_write=1052 bw_util=0.07047
n_activity=12510 dram_eff=0.4742
bk0: 204a 77571i bk1: 208a 77590i bk2: 182a 81150i bk3: 156a 81181i bk4: 120a 83079i bk5: 110a 82990i bk6: 136a 81672i bk7: 128a 81848i bk8: 68a 84031i bk9: 82a 83968i bk10: 126a 80934i bk11: 120a 80822i bk12: 116a 81118i bk13: 94a 81635i bk14: 32a 83902i bk15: 32a 83906i 
dram_util_bins: 0 0 0 0 0 0 0 0 0 0
dram_eff_bins: 0 0 0 0 0 0 0 0 0 0
mrqq: max=16 avg=1.237
Memory Partition 8: 
Cache L2_bank_016:
MSHR contents

Cache L2_bank_017:
MSHR contents

In Dram Latency Queue (total = 0): 
DRAM[8]: 16 bks, busW=4 BL=8 CL=12, tRRD=2 tCCD=6, tRCD=12 tRAS=28 tRP=12 tRC=40
n_cmd=84182 n_nop=80850 n_act=241 n_pre=225 n_req=1513 n_rd=1858 n_write=1008 bw_util=0.06809
n_activity=12398 dram_eff=0.4623
bk0: 204a 77973i bk1: 208a 78348i bk2: 178a 81212i bk3: 158a 81370i bk4: 114a 82985i bk5: 86a 83048i bk6: 128a 81745i bk7: 124a 81661i bk8: 72a 83994i bk9: 90a 83903i bk10: 120a 80899i bk11: 122a 81106i bk12: 102a 81340i bk13: 104a 81471i bk14: 18a 83912i bk15: 30a 83916i 
dram_util_bins: 0 0 0 0 0 0 0 0 0 0
dram_eff_bins: 0 0 0 0 0 0 0 0 0 0
mrqq: max=16 avg=0.985662
Memory Partition 9: 
Cache L2_bank_018:
MSHR contents

Cache L2_bank_019:
MSHR contents

In Dram Latency Queue (total = 0): 
DRAM[9]: 16 bks, busW=4 BL=8 CL=12, tRRD=2 tCCD=6, tRCD=12 tRAS=28 tRP=12 tRC=40
n_cmd=84182 n_nop=80802 n_act=255 n_pre=239 n_req=1532 n_rd=1856 n_write=1030 bw_util=0.06857
n_activity=12914 dram_eff=0.447
bk0: 204a 77980i bk1: 212a 78084i bk2: 168a 81219i bk3: 152a 81429i bk4: 118a 82934i bk5: 92a 83055i bk6: 130a 81466i bk7: 126a 81765i bk8: 72a 83985i bk9: 90a 83898i bk10: 120a 80903i bk11: 122a 80996i bk12: 102a 81377i bk13: 96a 81569i bk14: 20a 84016i bk15: 32a 83936i 
dram_util_bins: 0 0 0 0 0 0 0 0 0 0
dram_eff_bins: 0 0 0 0 0 0 0 0 0 0
mrqq: max=16 avg=1.0985
Memory Partition 10: 
Cache L2_bank_020:
MSHR contents

Cache L2_bank_021:
MSHR contents

In Dram Latency Queue (total = 0): 
DRAM[10]: 16 bks, busW=4 BL=8 CL=12, tRRD=2 tCCD=6, tRCD=12 tRAS=28 tRP=12 tRC=40
n_cmd=84182 n_nop=80829 n_act=254 n_pre=238 n_req=1515 n_rd=1842 n_write=1019 bw_util=0.06797
n_activity=12671 dram_eff=0.4516
bk0: 202a 78103i bk1: 212a 77837i bk2: 172a 81445i bk3: 158a 81324i bk4: 108a 82956i bk5: 92a 83040i bk6: 126a 82247i bk7: 124a 81892i bk8: 76a 84011i bk9: 92a 83957i bk10: 118a 81171i bk11: 124a 80891i bk12: 92a 81702i bk13: 98a 81409i bk14: 20a 83970i bk15: 28a 83963i 
dram_util_bins: 0 0 0 0 0 0 0 0 0 0
dram_eff_bins: 0 0 0 0 0 0 0 0 0 0
mrqq: max=16 avg=1.03533
Memory Partition 11: 
Cache L2_bank_022:
MSHR contents

Cache L2_bank_023:
MSHR contents

In Dram Latency Queue (total = 0): 
DRAM[11]: 16 bks, busW=4 BL=8 CL=12, tRRD=2 tCCD=6, tRCD=12 tRAS=28 tRP=12 tRC=40
n_cmd=84182 n_nop=80831 n_act=265 n_pre=249 n_req=1499 n_rd=1822 n_write=1015 bw_util=0.0674
n_activity=12624 dram_eff=0.4495
bk0: 204a 77821i bk1: 210a 77885i bk2: 166a 81248i bk3: 152a 81256i bk4: 112a 83008i bk5: 92a 83131i bk6: 128a 82242i bk7: 122a 82016i bk8: 70a 84002i bk9: 86a 83942i bk10: 116a 80801i bk11: 124a 80968i bk12: 102a 81618i bk13: 98a 81317i bk14: 12a 83981i bk15: 28a 83890i 
dram_util_bins: 0 0 0 0 0 0 0 0 0 0
dram_eff_bins: 0 0 0 0 0 0 0 0 0 0
mrqq: max=16 avg=1.11478
Memory Partition 12: 
Cache L2_bank_024:
MSHR contents

Cache L2_bank_025:
MSHR contents

In Dram Latency Queue (total = 0): 
DRAM[12]: 16 bks, busW=4 BL=8 CL=12, tRRD=2 tCCD=6, tRCD=12 tRAS=28 tRP=12 tRC=40
n_cmd=84182 n_nop=80780 n_act=254 n_pre=238 n_req=1537 n_rd=1878 n_write=1032 bw_util=0.06914
n_activity=12914 dram_eff=0.4507
bk0: 204a 78157i bk1: 212a 77879i bk2: 168a 81470i bk3: 172a 81282i bk4: 106a 82939i bk5: 112a 83046i bk6: 124a 82069i bk7: 128a 81903i bk8: 72a 83973i bk9: 78a 83855i bk10: 112a 81201i bk11: 130a 80968i bk12: 88a 81675i bk13: 106a 81515i bk14: 34a 83896i bk15: 32a 83951i 
dram_util_bins: 0 0 0 0 0 0 0 0 0 0
dram_eff_bins: 0 0 0 0 0 0 0 0 0 0
mrqq: max=16 avg=1.24022
Memory Partition 13: 
Cache L2_bank_026:
MSHR contents

Cache L2_bank_027:
MSHR contents

In Dram Latency Queue (total = 0): 
DRAM[13]: 16 bks, busW=4 BL=8 CL=12, tRRD=2 tCCD=6, tRCD=12 tRAS=28 tRP=12 tRC=40
n_cmd=84182 n_nop=80747 n_act=271 n_pre=255 n_req=1546 n_rd=1868 n_write=1041 bw_util=0.06911
n_activity=12937 dram_eff=0.4497
bk0: 206a 78222i bk1: 220a 77901i bk2: 164a 81487i bk3: 166a 81279i bk4: 114a 83091i bk5: 104a 83093i bk6: 126a 81910i bk7: 128a 82010i bk8: 70a 84009i bk9: 80a 83844i bk10: 110a 81509i bk11: 126a 80843i bk12: 94a 81656i bk13: 100a 81560i bk14: 26a 83970i bk15: 34a 83958i 
dram_util_bins: 0 0 0 0 0 0 0 0 0 0
dram_eff_bins: 0 0 0 0 0 0 0 0 0 0
mrqq: max=16 avg=1.16217
Memory Partition 14: 
Cache L2_bank_028:
MSHR contents

Cache L2_bank_029:
MSHR contents

In Dram Latency Queue (total = 0): 
DRAM[14]: 16 bks, busW=4 BL=8 CL=12, tRRD=2 tCCD=6, tRCD=12 tRAS=28 tRP=12 tRC=40
n_cmd=84182 n_nop=80764 n_act=261 n_pre=245 n_req=1540 n_rd=1888 n_write=1024 bw_util=0.06918
n_activity=13246 dram_eff=0.4397
bk0: 202a 77899i bk1: 214a 77811i bk2: 168a 81371i bk3: 166a 81477i bk4: 118a 82773i bk5: 116a 83067i bk6: 128a 82227i bk7: 128a 82078i bk8: 68a 83975i bk9: 70a 83946i bk10: 112a 81254i bk11: 144a 81100i bk12: 84a 81878i bk13: 94a 81393i bk14: 30a 83924i bk15: 46a 83939i 
dram_util_bins: 0 0 0 0 0 0 0 0 0 0
dram_eff_bins: 0 0 0 0 0 0 0 0 0 0
mrqq: max=16 avg=1.08779
Memory Partition 15: 
Cache L2_bank_030:
MSHR contents

Cache L2_bank_031:
MSHR contents

In Dram Latency Queue (total = 0): 
DRAM[15]: 16 bks, busW=4 BL=8 CL=12, tRRD=2 tCCD=6, tRCD=12 tRAS=28 tRP=12 tRC=40
n_cmd=84182 n_nop=80778 n_act=265 n_pre=249 n_req=1527 n_rd=1878 n_write=1012 bw_util=0.06866
n_activity=12789 dram_eff=0.452
bk0: 200a 78096i bk1: 214a 77811i bk2: 160a 81231i bk3: 164a 81358i bk4: 122a 83015i bk5: 118a 82964i bk6: 128a 82145i bk7: 134a 81848i bk8: 64a 84067i bk9: 70a 83980i bk10: 118a 81044i bk11: 140a 80925i bk12: 82a 81729i bk13: 88a 81499i bk14: 30a 83924i bk15: 46a 83901i 
dram_util_bins: 0 0 0 0 0 0 0 0 0 0
dram_eff_bins: 0 0 0 0 0 0 0 0 0 0
mrqq: max=16 avg=1.03736

========= L2 cache stats =========
L2_cache_bank[0]: Access = 1786, Miss = 490, Miss_rate = 0.274, Pending_hits = 43, Reservation_fails = 329
L2_cache_bank[1]: Access = 1595, Miss = 434, Miss_rate = 0.272, Pending_hits = 29, Reservation_fails = 135
L2_cache_bank[2]: Access = 1662, Miss = 492, Miss_rate = 0.296, Pending_hits = 39, Reservation_fails = 895
L2_cache_bank[3]: Access = 1587, Miss = 431, Miss_rate = 0.272, Pending_hits = 33, Reservation_fails = 464
L2_cache_bank[4]: Access = 2020, Miss = 490, Miss_rate = 0.243, Pending_hits = 28, Reservation_fails = 355
L2_cache_bank[5]: Access = 2001, Miss = 437, Miss_rate = 0.218, Pending_hits = 36, Reservation_fails = 151
L2_cache_bank[6]: Access = 1848, Miss = 478, Miss_rate = 0.259, Pending_hits = 22, Reservation_fails = 0
L2_cache_bank[7]: Access = 1991, Miss = 433, Miss_rate = 0.217, Pending_hits = 30, Reservation_fails = 222
L2_cache_bank[8]: Access = 1841, Miss = 492, Miss_rate = 0.267, Pending_hits = 36, Reservation_fails = 0
L2_cache_bank[9]: Access = 2032, Miss = 457, Miss_rate = 0.225, Pending_hits = 32, Reservation_fails = 200
L2_cache_bank[10]: Access = 1190, Miss = 485, Miss_rate = 0.408, Pending_hits = 37, Reservation_fails = 2
L2_cache_bank[11]: Access = 2007, Miss = 454, Miss_rate = 0.226, Pending_hits = 32, Reservation_fails = 201
L2_cache_bank[12]: Access = 1219, Miss = 496, Miss_rate = 0.407, Pending_hits = 32, Reservation_fails = 5
L2_cache_bank[13]: Access = 2025, Miss = 467, Miss_rate = 0.231, Pending_hits = 31, Reservation_fails = 204
L2_cache_bank[14]: Access = 1240, Miss = 492, Miss_rate = 0.397, Pending_hits = 22, Reservation_fails = 2
L2_cache_bank[15]: Access = 1805, Miss = 465, Miss_rate = 0.258, Pending_hits = 30, Reservation_fails = 202
L2_cache_bank[16]: Access = 1132, Miss = 468, Miss_rate = 0.413, Pending_hits = 19, Reservation_fails = 0
L2_cache_bank[17]: Access = 1770, Miss = 461, Miss_rate = 0.260, Pending_hits = 18, Reservation_fails = 192
L2_cache_bank[18]: Access = 1112, Miss = 467, Miss_rate = 0.420, Pending_hits = 25, Reservation_fails = 2
L2_cache_bank[19]: Access = 1732, Miss = 461, Miss_rate = 0.266, Pending_hits = 31, Reservation_fails = 221
L2_cache_bank[20]: Access = 1160, Miss = 457, Miss_rate = 0.394, Pending_hits = 23, Reservation_fails = 0
L2_cache_bank[21]: Access = 1723, Miss = 464, Miss_rate = 0.269, Pending_hits = 24, Reservation_fails = 194
L2_cache_bank[22]: Access = 1152, Miss = 455, Miss_rate = 0.395, Pending_hits = 17, Reservation_fails = 0
L2_cache_bank[23]: Access = 1695, Miss = 456, Miss_rate = 0.269, Pending_hits = 21, Reservation_fails = 197
L2_cache_bank[24]: Access = 1509, Miss = 454, Miss_rate = 0.301, Pending_hits = 28, Reservation_fails = 228
L2_cache_bank[25]: Access = 1718, Miss = 485, Miss_rate = 0.282, Pending_hits = 20, Reservation_fails = 275
L2_cache_bank[26]: Access = 1494, Miss = 455, Miss_rate = 0.305, Pending_hits = 33, Reservation_fails = 455
L2_cache_bank[27]: Access = 1709, Miss = 479, Miss_rate = 0.280, Pending_hits = 33, Reservation_fails = 126
L2_cache_bank[28]: Access = 1491, Miss = 455, Miss_rate = 0.305, Pending_hits = 29, Reservation_fails = 609
L2_cache_bank[29]: Access = 1754, Miss = 489, Miss_rate = 0.279, Pending_hits = 23, Reservation_fails = 206
L2_cache_bank[30]: Access = 1758, Miss = 452, Miss_rate = 0.257, Pending_hits = 23, Reservation_fails = 210
L2_cache_bank[31]: Access = 1741, Miss = 487, Miss_rate = 0.280, Pending_hits = 25, Reservation_fails = 183
L2_total_cache_accesses = 52499
L2_total_cache_misses = 14938
L2_total_cache_miss_rate = 0.2845
L2_total_cache_pending_hits = 904
L2_total_cache_reservation_fails = 6465
L2_total_cache_breakdown:
	L2_cache_stats_breakdown[GLOBAL_ACC_R][HIT] = 4037
	L2_cache_stats_breakdown[GLOBAL_ACC_R][HIT_RESERVED] = 1
	L2_cache_stats_breakdown[GLOBAL_ACC_R][MISS] = 26
	L2_cache_stats_breakdown[LOCAL_ACC_R][HIT] = 3067
	L2_cache_stats_breakdown[LOCAL_ACC_R][MISS] = 5973
	L2_cache_stats_breakdown[LOCAL_ACC_R][RESERVATION_FAIL] = 126
	L2_cache_stats_breakdown[CONST_ACC_R][HIT] = 324
	L2_cache_stats_breakdown[CONST_ACC_R][HIT_RESERVED] = 12
	L2_cache_stats_breakdown[CONST_ACC_R][MISS] = 4
	L2_cache_stats_breakdown[CONST_ACC_R][RESERVATION_FAIL] = 1245
	L2_cache_stats_breakdown[GLOBAL_ACC_W][HIT] = 5376
	L2_cache_stats_breakdown[GLOBAL_ACC_W][HIT_RESERVED] = 768
	L2_cache_stats_breakdown[GLOBAL_ACC_W][MISS] = 2048
	L2_cache_stats_breakdown[GLOBAL_ACC_W][RESERVATION_FAIL] = 80
	L2_cache_stats_breakdown[LOCAL_ACC_W][HIT] = 5598
	L2_cache_stats_breakdown[LOCAL_ACC_W][MISS] = 6829
	L2_cache_stats_breakdown[LOCAL_ACC_W][RESERVATION_FAIL] = 257
	L2_cache_stats_breakdown[L1_WRBK_ACC][HIT] = 4155
	L2_cache_stats_breakdown[L1_WRBK_ACC][MISS] = 11
	L2_cache_stats_breakdown[INST_ACC_R][HIT] = 14100
	L2_cache_stats_breakdown[INST_ACC_R][HIT_RESERVED] = 123
	L2_cache_stats_breakdown[INST_ACC_R][MISS] = 47
	L2_cache_stats_breakdown[INST_ACC_R][RESERVATION_FAIL] = 4757
L2_cache_data_port_util = 0.066
L2_cache_fill_port_util = 0.029

icnt_total_pkts_mem_to_simt=158509
icnt_total_pkts_simt_to_mem=134940
LD_mem_lat_dist  0 0 0 0 0 0 0 0 0 0 0 0 0 0 0 0 0 0 0 0 0 0 0 0 0 0 0
ST_mem_lat_dist  0 0 0 0 0 0 0 0 0 0 0 0 0 0 0 0 0 0 0 0 0 0 0 0 0 0 0
----------------------------Interconnect-DETAILS--------------------------------
Class 0:
Packet latency average = 27.8286
	minimum = 6
	maximum = 1203
Network latency average = 20.4293
	minimum = 6
	maximum = 1020
Slowest packet = 1868
Flit latency average = 19.0908
	minimum = 6
	maximum = 1018
Slowest flit = 16240
Fragmentation average = 0.206849
	minimum = 0
	maximum = 544
Injected packet rate average = 0.0158106
	minimum = 0.00721286 (at node 16)
	maximum = 0.0298706 (at node 77)
Accepted packet rate average = 0.0158106
	minimum = 0.00652293 (at node 16)
	maximum = 0.031862 (at node 77)
Injected flit rate average = 0.0460132
	minimum = 0.0210114 (at node 16)
	maximum = 0.109651 (at node 77)
Accepted flit rate average= 0.0460132
	minimum = 0.0189102 (at node 16)
	maximum = 0.0732262 (at node 72)
Injected packet length average = 2.91028
Accepted packet length average = 2.91028
Total in-flight flits = 0 (0 measured)
====== Overall Traffic Statistics ======
====== Traffic class 0 ======
Packet latency average = 27.8286 (1 samples)
	minimum = 6 (1 samples)
	maximum = 1203 (1 samples)
Network latency average = 20.4293 (1 samples)
	minimum = 6 (1 samples)
	maximum = 1020 (1 samples)
Flit latency average = 19.0908 (1 samples)
	minimum = 6 (1 samples)
	maximum = 1018 (1 samples)
Fragmentation average = 0.206849 (1 samples)
	minimum = 0 (1 samples)
	maximum = 544 (1 samples)
Injected packet rate average = 0.0158106 (1 samples)
	minimum = 0.00721286 (1 samples)
	maximum = 0.0298706 (1 samples)
Accepted packet rate average = 0.0158106 (1 samples)
	minimum = 0.00652293 (1 samples)
	maximum = 0.031862 (1 samples)
Injected flit rate average = 0.0460132 (1 samples)
	minimum = 0.0210114 (1 samples)
	maximum = 0.109651 (1 samples)
Accepted flit rate average = 0.0460132 (1 samples)
	minimum = 0.0189102 (1 samples)
	maximum = 0.0732262 (1 samples)
Injected packet size average = 2.91028 (1 samples)
Accepted packet size average = 2.91028 (1 samples)
Hops average = 1 (1 samples)
----------------------------END-of-Interconnect-DETAILS-------------------------


gpgpu_simulation_time = 0 days, 0 hrs, 4 min, 4 sec (244 sec)
gpgpu_simulation_rate = 192076 (inst/sec)
gpgpu_simulation_rate = 261 (cycle/sec)
GPGPU-Sim: synchronize waiting for inactive GPU simulation
GPGPU-Sim API: Stream Manager State
GPGPU-Sim: detected inactive GPU simulation thread

checksum=75ef40cb5b8e
Kernel Time: 243711.046875 
