

        *** GPGPU-Sim Simulator Version 3.2.2  [build 0] ***


GPGPU-Sim PTX: simulation mode 0 (can change with PTX_SIM_MODE_FUNC environment variable:
               1=functional simulation only, 0=detailed performance simulator)
GPGPU-Sim: Configuration options:

-network_mode                           1 # Interconnection network mode
-inter_config_file   config_fermi_islip.icnt # Interconnection network config file
-gpgpu_ptx_use_cuobjdump                    1 # Use cuobjdump to extract ptx and sass from binaries
-gpgpu_experimental_lib_support                    0 # Try to extract code from cuda libraries [Broken because of unknown cudaGetExportTable]
-gpgpu_ptx_convert_to_ptxplus                    0 # Convert SASS (native ISA) to ptxplus and run ptxplus
-gpgpu_ptx_force_max_capability                   20 # Force maximum compute capability
-gpgpu_ptx_inst_debug_to_file                    0 # Dump executed instructions' debug information to file
-gpgpu_ptx_inst_debug_file       inst_debug.txt # Executed instructions' debug output file
-gpgpu_ptx_inst_debug_thread_uid                    1 # Thread UID for executed instructions' debug output
-gpgpu_simd_model                       1 # 1 = post-dominator
-gpgpu_shader_core_pipeline              1536:32 # shader core pipeline config, i.e., {<nthread>:<warpsize>}
-gpgpu_tex_cache:l1  4:128:24,L:R:m:N:L,F:128:4,128:2 # per-shader L1 texture cache  (READ-ONLY) config  {<nsets>:<bsize>:<assoc>,<rep>:<wr>:<alloc>:<wr_alloc>,<mshr>:<N>:<merge>,<mq>:<rf>}
-gpgpu_const_cache:l1 64:64:2,L:R:f:N:L,A:2:32,4 # per-shader L1 constant memory cache  (READ-ONLY) config  {<nsets>:<bsize>:<assoc>,<rep>:<wr>:<alloc>:<wr_alloc>,<mshr>:<N>:<merge>,<mq>} 
-gpgpu_cache:il1     4:128:4,L:R:f:N:L,A:2:32,4 # shader L1 instruction cache config  {<nsets>:<bsize>:<assoc>,<rep>:<wr>:<alloc>:<wr_alloc>,<mshr>:<N>:<merge>,<mq>} 
-gpgpu_cache:dl1     32:128:4,L:L:m:N:H,A:32:8,8 # per-shader L1 data cache config  {<nsets>:<bsize>:<assoc>,<rep>:<wr>:<alloc>:<wr_alloc>,<mshr>:<N>:<merge>,<mq> | none}
-gpgpu_cache:dl1PrefL1                 none # per-shader L1 data cache config  {<nsets>:<bsize>:<assoc>,<rep>:<wr>:<alloc>:<wr_alloc>,<mshr>:<N>:<merge>,<mq> | none}
-gpgpu_cache:dl1PreShared                 none # per-shader L1 data cache config  {<nsets>:<bsize>:<assoc>,<rep>:<wr>:<alloc>:<wr_alloc>,<mshr>:<N>:<merge>,<mq> | none}
-gmem_skip_L1D                          0 # global memory access skip L1D cache (implements -Xptxas -dlcm=cg, default=no skip)
-gpgpu_perfect_mem                      0 # enable perfect memory mode (no cache miss)
-n_regfile_gating_group                    4 # group of lanes that should be read/written together)
-gpgpu_clock_gated_reg_file                    0 # enable clock gated reg file for power calculations
-gpgpu_clock_gated_lanes                    0 # enable clock gated lanes for power calculations
-gpgpu_shader_registers                32768 # Number of registers per shader core. Limits number of concurrent CTAs. (default 8192)
-gpgpu_shader_cta                       8 # Maximum number of concurrent CTAs in shader (default 8)
-gpgpu_num_cta_barriers                   16 # Maximum number of named barriers per CTA (default 16)
-gpgpu_n_clusters                      68 # number of processing clusters
-gpgpu_n_cores_per_cluster                    1 # number of simd cores per cluster
-gpgpu_n_cluster_ejection_buffer_size                    8 # number of packets in ejection buffer
-gpgpu_n_ldst_response_buffer_size                    2 # number of response packets in ld/st unit ejection buffer
-gpgpu_shmem_size                   16384 # Size of shared memory per shader core (default 16kB)
-gpgpu_shmem_size                   49152 # Size of shared memory per shader core (default 16kB)
-gpgpu_shmem_size_PrefL1                16384 # Size of shared memory per shader core (default 16kB)
-gpgpu_shmem_size_PrefShared                16384 # Size of shared memory per shader core (default 16kB)
-gpgpu_shmem_num_banks                   32 # Number of banks in the shared memory in each shader core (default 16)
-gpgpu_shmem_limited_broadcast                    0 # Limit shared memory to do one broadcast per cycle (default on)
-gpgpu_shmem_warp_parts                    1 # Number of portions a warp is divided into for shared memory bank conflict check 
-gpgpu_warpdistro_shader                   -1 # Specify which shader core to collect the warp size distribution from
-gpgpu_warp_issue_shader                    0 # Specify which shader core to collect the warp issue distribution from
-gpgpu_local_mem_map                    1 # Mapping from local memory space address to simulated GPU physical address space (default = enabled)
-gpgpu_num_reg_banks                   16 # Number of register banks (default = 8)
-gpgpu_reg_bank_use_warp_id                    0 # Use warp ID in mapping registers to banks (default = off)
-gpgpu_operand_collector_num_units_sp                    6 # number of collector units (default = 4)
-gpgpu_operand_collector_num_units_sfu                    8 # number of collector units (default = 4)
-gpgpu_operand_collector_num_units_mem                    2 # number of collector units (default = 2)
-gpgpu_operand_collector_num_units_gen                    0 # number of collector units (default = 0)
-gpgpu_operand_collector_num_in_ports_sp                    2 # number of collector unit in ports (default = 1)
-gpgpu_operand_collector_num_in_ports_sfu                    1 # number of collector unit in ports (default = 1)
-gpgpu_operand_collector_num_in_ports_mem                    1 # number of collector unit in ports (default = 1)
-gpgpu_operand_collector_num_in_ports_gen                    0 # number of collector unit in ports (default = 0)
-gpgpu_operand_collector_num_out_ports_sp                    2 # number of collector unit in ports (default = 1)
-gpgpu_operand_collector_num_out_ports_sfu                    1 # number of collector unit in ports (default = 1)
-gpgpu_operand_collector_num_out_ports_mem                    1 # number of collector unit in ports (default = 1)
-gpgpu_operand_collector_num_out_ports_gen                    0 # number of collector unit in ports (default = 0)
-gpgpu_coalesce_arch                   13 # Coalescing arch (default = 13, anything else is off for now)
-gpgpu_num_sched_per_core                    2 # Number of warp schedulers per core
-gpgpu_max_insn_issue_per_warp                    1 # Max number of instructions that can be issued per warp in one cycle by scheduler
-gpgpu_simt_core_sim_order                    1 # Select the simulation order of cores in a cluster (0=Fix, 1=Round-Robin)
-gpgpu_pipeline_widths        2,1,1,2,1,1,2 # Pipeline widths ID_OC_SP,ID_OC_SFU,ID_OC_MEM,OC_EX_SP,OC_EX_SFU,OC_EX_MEM,EX_WB
-gpgpu_num_sp_units                     2 # Number of SP units (default=1)
-gpgpu_num_sfu_units                    1 # Number of SF units (default=1)
-gpgpu_num_mem_units                    1 # Number if ldst units (default=1) WARNING: not hooked up to anything
-gpgpu_scheduler                      gto # Scheduler configuration: < lrr | gto | two_level_active > If two_level_active:<num_active_warps>:<inner_prioritization>:<outer_prioritization>For complete list of prioritization values see shader.h enum scheduler_prioritization_typeDefault: gto
-gpgpu_dram_scheduler                    1 # 0 = fifo, 1 = FR-FCFS (defaul)
-gpgpu_dram_partition_queues              8:8:8:8 # i2$:$2d:d2$:$2i
-l2_ideal                               0 # Use a ideal L2 cache that always hit
-gpgpu_cache:dl2     64:128:8,L:B:m:W:L,A:32:4,4:0,32 # unified banked L2 data cache config  {<nsets>:<bsize>:<assoc>,<rep>:<wr>:<alloc>:<wr_alloc>,<mshr>:<N>:<merge>,<mq>}
-gpgpu_cache:dl2_texture_only                    0 # L2 cache used for texture only
-gpgpu_n_mem                           16 # number of memory modules (e.g. memory controllers) in gpu
-gpgpu_n_sub_partition_per_mchannel                    2 # number of memory subpartition in each memory module
-gpgpu_n_mem_per_ctrlr                    2 # number of memory chips per memory controller
-gpgpu_memlatency_stat                   14 # track and display latency statistics 0x2 enables MC, 0x4 enables queue logs
-gpgpu_frfcfs_dram_sched_queue_size                   16 # 0 = unlimited (default); # entries per chip
-gpgpu_dram_return_queue_size                  116 # 0 = unlimited (default); # entries per chip
-gpgpu_dram_buswidth                    4 # default = 4 bytes (8 bytes per cycle at DDR)
-gpgpu_dram_burst_length                    8 # Burst length of each DRAM request (default = 4 data bus cycle)
-dram_data_command_freq_ratio                    4 # Frequency ratio between DRAM data bus and command bus (default = 2 times, i.e. DDR)
-gpgpu_dram_timing_opt nbk=16:CCD=2:RRD=6:RCD=12:RAS=28:RP=12:RC=40: CL=12:WL=4:CDLR=5:WR=12:nbkgrp=4:CCDL=3:RTPL=2 # DRAM timing parameters = {nbk:tCCD:tRRD:tRCD:tRAS:tRP:tRC:CL:WL:tCDLR:tWR:nbkgrp:tCCDL:tRTPL}
-rop_latency                          120 # ROP queue latency (default 85)
-dram_latency                         100 # DRAM latency (default 30)
-gpgpu_mem_addr_mapping dramid@8;00000000.00000000.00000000.00000000.0000RRRR.RRRRRRRR.BBBCCCCB.CCSSSSSS # mapping memory address to dram model {dramid@<start bit>;<memory address map>}
-gpgpu_mem_addr_test                    0 # run sweep test to check address mapping for aliased address
-gpgpu_mem_address_mask                    1 # 0 = old addressing mask, 1 = new addressing mask, 2 = new add. mask + flipped bank sel and chip sel bits
-gpuwattch_xml_file  gpuwattch_gtx480.xml # GPUWattch XML file
-power_simulation_enabled                    1 # Turn on power simulator (1=On, 0=Off)
-power_per_cycle_dump                    0 # Dump detailed power output each cycle
-power_trace_enabled                    0 # produce a file for the power trace (1=On, 0=Off)
-power_trace_zlevel                     6 # Compression level of the power trace output log (0=no comp, 9=highest)
-steady_power_levels_enabled                    0 # produce a file for the steady power levels (1=On, 0=Off)
-steady_state_definition                  8:4 # allowed deviation:number of samples
-gpgpu_max_cycle                        0 # terminates gpu simulation early (0 = no limit)
-gpgpu_max_insn                         0 # terminates gpu simulation early (0 = no limit)
-gpgpu_max_cta                          0 # terminates gpu simulation early (0 = no limit)
-gpgpu_runtime_stat                   500 # display runtime statistics such as dram utilization {<freq>:<flag>}
-liveness_message_freq                    1 # Minimum number of seconds between simulation liveness messages (0 = always print)
-gpgpu_flush_l1_cache                    0 # Flush L1 cache at the end of each kernel call
-gpgpu_flush_l2_cache                    0 # Flush L2 cache at the end of each kernel call
-gpgpu_deadlock_detect                    1 # Stop the simulation at deadlock (1=on (default), 0=off)
-gpgpu_ptx_instruction_classification                    0 # if enabled will classify ptx instruction types per kernel (Max 255 kernels now)
-gpgpu_ptx_sim_mode                     0 # Select between Performance (default) or Functional simulation (1)
-gpgpu_clock_domains 700.0:700.0:700.0:924.0 # Clock Domain Frequencies in MhZ {<Core Clock>:<ICNT Clock>:<L2 Clock>:<DRAM Clock>}
-gpgpu_max_concurrent_kernel                    8 # maximum kernels that can run concurrently on GPU
-gpgpu_cflog_interval                    0 # Interval between each snapshot in control flow logger
-visualizer_enabled                     0 # Turn on visualizer output (1=On, 0=Off)
-visualizer_outputfile                 NULL # Specifies the output log file for visualizer
-visualizer_zlevel                      6 # Compression level of the visualizer output log (0=no comp, 9=highest)
-trace_enabled                          0 # Turn on traces
-trace_components                    none # comma seperated list of traces to enable. Complete list found in trace_streams.tup. Default none
-trace_sampling_core                    0 # The core which is printed using CORE_DPRINTF. Default 0
-trace_sampling_memory_partition                   -1 # The memory partition which is printed using MEMPART_DPRINTF. Default -1 (i.e. all)
-enable_ptx_file_line_stats                    1 # Turn on PTX source line statistic profiling. (1 = On)
-ptx_line_stats_filename gpgpu_inst_stats.txt # Output file for PTX source line statistics.
-save_embedded_ptx                      0 # saves ptx files embedded in binary as <n>.ptx
-keep                                   0 # keep intermediate files created by GPGPU-Sim when interfacing with external programs
-gpgpu_ptx_save_converted_ptxplus                    0 # Saved converted ptxplus to a file
-ptx_opcode_latency_int         4,13,4,5,145 # Opcode latencies for integers <ADD,MAX,MUL,MAD,DIV>Default 1,1,19,25,145
-ptx_opcode_latency_fp          4,13,4,5,39 # Opcode latencies for single precision floating points <ADD,MAX,MUL,MAD,DIV>Default 1,1,1,1,30
-ptx_opcode_latency_dp         8,19,8,8,330 # Opcode latencies for double precision floating points <ADD,MAX,MUL,MAD,DIV>Default 8,8,8,8,335
-ptx_opcode_initiation_int            1,2,2,1,8 # Opcode initiation intervals for integers <ADD,MAX,MUL,MAD,DIV>Default 1,1,4,4,32
-ptx_opcode_initiation_fp            1,2,1,1,4 # Opcode initiation intervals for single precision floating points <ADD,MAX,MUL,MAD,DIV>Default 1,1,1,1,5
-ptx_opcode_initiation_dp         8,16,8,8,130 # Opcode initiation intervals for double precision floating points <ADD,MAX,MUL,MAD,DIV>Default 8,8,8,8,130
DRAM Timing Options:
nbk                                    16 # number of banks
CCD                                     2 # column to column delay
RRD                                     6 # minimal delay between activation of rows in different banks
RCD                                    12 # row to column delay
RAS                                    28 # time needed to activate row
RP                                     12 # time needed to precharge (deactivate) row
RC                                     40 # row cycle time
CDLR                                    5 # switching from write to read (changes tWTR)
WR                                     12 # last data-in to row precharge
CL                                     12 # CAS latency
WL                                      4 # Write latency
nbkgrp                                  4 # number of bank groups
CCDL                                    3 # column to column delay between accesses to different bank groups
RTPL                                    2 # read to precharge delay between accesses to different bank groups
Total number of memory sub partition = 32
addr_dec_mask[CHIP]  = 0000000000000f00 	high:12 low:8
addr_dec_mask[BK]    = 00000000000e1000 	high:20 low:12
addr_dec_mask[ROW]   = 00000000fff00000 	high:32 low:20
addr_dec_mask[COL]   = 000000000001e0ff 	high:17 low:0
addr_dec_mask[BURST] = 000000000000003f 	high:6 low:0
sub_partition_id_mask = 0000000000001000
GPGPU-Sim uArch: clock freqs: 700000000.000000:700000000.000000:700000000.000000:924000000.000000
GPGPU-Sim uArch: clock periods: 0.00000000142857142857:0.00000000142857142857:0.00000000142857142857:0.00000000108225108225
*** Initializing Memory Statistics ***
GPGPU-Sim uArch: interconnect node map (shaderID+MemID to icntID)
GPGPU-Sim uArch: Memory nodes ID start from index: 68
GPGPU-Sim uArch:    0   1   2   3   4   5   6   7   8   9
GPGPU-Sim uArch:   10  11  12  13  14  15  16  17  18  19
GPGPU-Sim uArch:   20  21  22  23  24  25  26  27  28  29
GPGPU-Sim uArch:   30  31  32  33  34  35  36  37  38  39
GPGPU-Sim uArch:   40  41  42  43  44  45  46  47  48  49
GPGPU-Sim uArch:   50  51  52  53  54  55  56  57  58  59
GPGPU-Sim uArch:   60  61  62  63  64  65  66  67  68  69
GPGPU-Sim uArch:   70  71  72  73  74  75  76  77  78  79
GPGPU-Sim uArch:   80  81  82  83  84  85  86  87  88  89
GPGPU-Sim uArch:   90  91  92  93  94  95  96  97  98  99
GPGPU-Sim uArch: interconnect node reverse map (icntID to shaderID+MemID)
GPGPU-Sim uArch: Memory nodes start from ID: 68
GPGPU-Sim uArch:    0   1   2   3   4   5   6   7   8   9
GPGPU-Sim uArch:   10  11  12  13  14  15  16  17  18  19
GPGPU-Sim uArch:   20  21  22  23  24  25  26  27  28  29
GPGPU-Sim uArch:   30  31  32  33  34  35  36  37  38  39
GPGPU-Sim uArch:   40  41  42  43  44  45  46  47  48  49
GPGPU-Sim uArch:   50  51  52  53  54  55  56  57  58  59
GPGPU-Sim uArch:   60  61  62  63  64  65  66  67  68  69
GPGPU-Sim uArch:   70  71  72  73  74  75  76  77  78  79
GPGPU-Sim uArch:   80  81  82  83  84  85  86  87  88  89
GPGPU-Sim uArch:   90  91  92  93  94  95  96  97  98  99
63fd297aa63cb0575298d2a4a3bab031  /root/ispass2009-benchmarks/bin/release/BFS
GPGPU-Sim uArch: performance model initialization complete.
GPGPU-Sim PTX: __cudaRegisterFatBinary, fat_cubin_handle = 1, filename=bfs.cu
self exe links to: /root/ispass2009-benchmarks/bin/release/BFS
Running md5sum using "md5sum /root/ispass2009-benchmarks/bin/release/BFS "
Running cuobjdump using "$CUDA_INSTALL_PATH/bin/cuobjdump -ptx -elf -sass /root/ispass2009-benchmarks/bin/release/BFS > _cuobjdump_complete_output_ys4iW8"
Parsing file _cuobjdump_complete_output_ys4iW8
######### cuobjdump parser ########
## Adding new section PTX
Adding ptx filename: _cuobjdump_1.ptx
Adding arch: sm_30
Adding identifier: bfs.cu
## Adding new section ELF
Adding arch: sm_30
Adding identifier: bfs.cu
## Adding new section ELF
Adding arch: sm_20
Adding identifier: bfs.cu
## Adding new section PTX
Adding ptx filename: _cuobjdump_2.ptx
Adding arch: sm_20
Adding identifier: bfs.cu
## Adding new section PTX
Adding ptx filename: _cuobjdump_3.ptx
Adding arch: sm_10
Adding identifier: bfs.cu
## Adding new section ELF
Adding arch: sm_10
Adding identifier: bfs.cu
Done parsing!!!
GPGPU-Sim PTX: __cudaRegisterFunction _Z6KernelP4NodePiPbS2_S1_S2_i : hostFun 0x0x4039b0, fat_cubin_handle = 1
GPGPU-Sim PTX: Warning %temp1 was declared previous at _1.ptx:58 skipping new declaration
GPGPU-Sim PTX: Warning %temp2 was declared previous at _1.ptx:59 skipping new declaration
GPGPU-Sim PTX: instruction assembly for function '_Z6KernelP4NodePiPbS2_S1_S2_i'...   done.
GPGPU-Sim PTX: finding reconvergence points for '_Z6KernelP4NodePiPbS2_S1_S2_i'...
GPGPU-Sim PTX: Finding dominators for '_Z6KernelP4NodePiPbS2_S1_S2_i'...
GPGPU-Sim PTX: Finding immediate dominators for '_Z6KernelP4NodePiPbS2_S1_S2_i'...
GPGPU-Sim PTX: Finding postdominators for '_Z6KernelP4NodePiPbS2_S1_S2_i'...
GPGPU-Sim PTX: Finding immediate postdominators for '_Z6KernelP4NodePiPbS2_S1_S2_i'...
GPGPU-Sim PTX: pre-decoding instructions for '_Z6KernelP4NodePiPbS2_S1_S2_i'...
GPGPU-Sim PTX: reconvergence points for _Z6KernelP4NodePiPbS2_S1_S2_i...
GPGPU-Sim PTX:  1 (potential) branch divergence @  PC=0x090 (_1.ptx:52) @%p1 bra BB0_7;
GPGPU-Sim PTX:    immediate post dominator      @  PC=0x208 (_1.ptx:133) ret;
GPGPU-Sim PTX:  2 (potential) branch divergence @  PC=0x0d0 (_1.ptx:65) @%p2 bra BB0_7;
GPGPU-Sim PTX:    immediate post dominator      @  PC=0x208 (_1.ptx:133) ret;
GPGPU-Sim PTX:  3 (potential) branch divergence @  PC=0x130 (_1.ptx:85) @%p3 bra BB0_7;
GPGPU-Sim PTX:    immediate post dominator      @  PC=0x208 (_1.ptx:133) ret;
GPGPU-Sim PTX:  4 (potential) branch divergence @  PC=0x190 (_1.ptx:107) @%p4 bra BB0_6;
GPGPU-Sim PTX:    immediate post dominator      @  PC=0x1d8 (_1.ptx:123) add.s32 %r29, %r29, 1;
GPGPU-Sim PTX:  5 (potential) branch divergence @  PC=0x200 (_1.ptx:129) @%p5 bra BB0_4;
GPGPU-Sim PTX:    immediate post dominator      @  PC=0x208 (_1.ptx:133) ret;
GPGPU-Sim PTX: ... end of reconvergence points for _Z6KernelP4NodePiPbS2_S1_S2_i
GPGPU-Sim PTX: ... done pre-decoding instructions for '_Z6KernelP4NodePiPbS2_S1_S2_i'.
GPGPU-Sim PTX: finished parsing EMBEDDED .ptx file _1.ptx
Adding _cuobjdump_2.ptx with cubin handle 1
GPGPU-Sim PTX: extracting embedded .ptx to temporary file "_ptx_odOSKw"
Running: cat _ptx_odOSKw | sed 's/.version 1.5/.version 1.4/' | sed 's/, texmode_independent//' | sed 's/\(\.extern \.const\[1\] .b8 \w\+\)\[\]/\1\[1\]/' | sed 's/const\[.\]/const\[0\]/g' > _ptx2_pxntzU
GPGPU-Sim PTX: generating ptxinfo using "$CUDA_INSTALL_PATH/bin/ptxas --gpu-name=sm_20 -v _ptx2_pxntzU --output-file  /dev/null 2> _ptx_odOSKwinfo"
GPGPU-Sim PTX: Kernel '_Z6KernelP4NodePiPbS2_S1_S2_i' : regs=15, lmem=0, smem=0, cmem=84
GPGPU-Sim PTX: removing ptxinfo using "rm -f _ptx_odOSKw _ptx2_pxntzU _ptx_odOSKwinfo"
GPGPU-Sim PTX: loading globals with explicit initializers... 
GPGPU-Sim PTX: finished loading globals (0 bytes total).
GPGPU-Sim PTX: loading constants with explicit initializers...  done.
Reading File
Input file: /root/ispass2009-benchmarks/BFS/data/graph65536.txt
Read File
Copied Everything to GPU memory

GPGPU-Sim PTX: cudaLaunch for 0x0x4039b0 (mode=performance simulation) on stream 0
GPGPU-Sim PTX: pushing kernel '_Z6KernelP4NodePiPbS2_S1_S2_i' to stream 0, gridDim= (256,1,1) blockDim = (256,1,1) 
kernel '_Z6KernelP4NodePiPbS2_S1_S2_i' transfer to GPU hardware scheduler
GPGPU-Sim uArch: Shader 1 bind to kernel 1 '_Z6KernelP4NodePiPbS2_S1_S2_i'
GPGPU-Sim uArch: CTA/core = 6, limited by: threads
GPGPU-Sim uArch: core:  1, cta: 0 initialized @(1,0)
GPGPU-Sim uArch: Shader 2 bind to kernel 1 '_Z6KernelP4NodePiPbS2_S1_S2_i'
GPGPU-Sim uArch: core:  2, cta: 0 initialized @(1,0)
GPGPU-Sim uArch: Shader 3 bind to kernel 1 '_Z6KernelP4NodePiPbS2_S1_S2_i'
GPGPU-Sim uArch: core:  3, cta: 0 initialized @(1,0)
GPGPU-Sim uArch: Shader 4 bind to kernel 1 '_Z6KernelP4NodePiPbS2_S1_S2_i'
GPGPU-Sim uArch: core:  4, cta: 0 initialized @(1,0)
GPGPU-Sim uArch: Shader 5 bind to kernel 1 '_Z6KernelP4NodePiPbS2_S1_S2_i'
GPGPU-Sim uArch: core:  5, cta: 0 initialized @(1,0)
GPGPU-Sim uArch: Shader 6 bind to kernel 1 '_Z6KernelP4NodePiPbS2_S1_S2_i'
GPGPU-Sim uArch: core:  6, cta: 0 initialized @(1,0)
GPGPU-Sim uArch: Shader 7 bind to kernel 1 '_Z6KernelP4NodePiPbS2_S1_S2_i'
GPGPU-Sim uArch: core:  7, cta: 0 initialized @(1,0)
GPGPU-Sim uArch: Shader 8 bind to kernel 1 '_Z6KernelP4NodePiPbS2_S1_S2_i'
GPGPU-Sim uArch: core:  8, cta: 0 initialized @(1,0)
GPGPU-Sim uArch: Shader 9 bind to kernel 1 '_Z6KernelP4NodePiPbS2_S1_S2_i'
GPGPU-Sim uArch: core:  9, cta: 0 initialized @(1,0)
GPGPU-Sim uArch: Shader 10 bind to kernel 1 '_Z6KernelP4NodePiPbS2_S1_S2_i'
GPGPU-Sim uArch: core: 10, cta: 0 initialized @(1,0)
GPGPU-Sim uArch: Shader 11 bind to kernel 1 '_Z6KernelP4NodePiPbS2_S1_S2_i'
GPGPU-Sim uArch: core: 11, cta: 0 initialized @(1,0)
GPGPU-Sim uArch: Shader 12 bind to kernel 1 '_Z6KernelP4NodePiPbS2_S1_S2_i'
GPGPU-Sim uArch: core: 12, cta: 0 initialized @(1,0)
GPGPU-Sim uArch: Shader 13 bind to kernel 1 '_Z6KernelP4NodePiPbS2_S1_S2_i'
GPGPU-Sim uArch: core: 13, cta: 0 initialized @(1,0)
GPGPU-Sim uArch: Shader 14 bind to kernel 1 '_Z6KernelP4NodePiPbS2_S1_S2_i'
GPGPU-Sim uArch: core: 14, cta: 0 initialized @(1,0)
GPGPU-Sim uArch: Shader 15 bind to kernel 1 '_Z6KernelP4NodePiPbS2_S1_S2_i'
GPGPU-Sim uArch: core: 15, cta: 0 initialized @(1,0)
GPGPU-Sim uArch: Shader 16 bind to kernel 1 '_Z6KernelP4NodePiPbS2_S1_S2_i'
GPGPU-Sim uArch: core: 16, cta: 0 initialized @(1,0)
GPGPU-Sim uArch: Shader 17 bind to kernel 1 '_Z6KernelP4NodePiPbS2_S1_S2_i'
GPGPU-Sim uArch: core: 17, cta: 0 initialized @(1,0)
GPGPU-Sim uArch: Shader 18 bind to kernel 1 '_Z6KernelP4NodePiPbS2_S1_S2_i'
GPGPU-Sim uArch: core: 18, cta: 0 initialized @(1,0)
GPGPU-Sim uArch: Shader 19 bind to kernel 1 '_Z6KernelP4NodePiPbS2_S1_S2_i'
GPGPU-Sim uArch: core: 19, cta: 0 initialized @(1,0)
GPGPU-Sim uArch: Shader 20 bind to kernel 1 '_Z6KernelP4NodePiPbS2_S1_S2_i'
GPGPU-Sim uArch: core: 20, cta: 0 initialized @(1,0)
GPGPU-Sim uArch: Shader 21 bind to kernel 1 '_Z6KernelP4NodePiPbS2_S1_S2_i'
GPGPU-Sim uArch: core: 21, cta: 0 initialized @(1,0)
GPGPU-Sim uArch: Shader 22 bind to kernel 1 '_Z6KernelP4NodePiPbS2_S1_S2_i'
GPGPU-Sim uArch: core: 22, cta: 0 initialized @(1,0)
GPGPU-Sim uArch: Shader 23 bind to kernel 1 '_Z6KernelP4NodePiPbS2_S1_S2_i'
GPGPU-Sim uArch: core: 23, cta: 0 initialized @(1,0)
GPGPU-Sim uArch: Shader 24 bind to kernel 1 '_Z6KernelP4NodePiPbS2_S1_S2_i'
GPGPU-Sim uArch: core: 24, cta: 0 initialized @(1,0)
GPGPU-Sim uArch: Shader 25 bind to kernel 1 '_Z6KernelP4NodePiPbS2_S1_S2_i'
GPGPU-Sim uArch: core: 25, cta: 0 initialized @(1,0)
GPGPU-Sim uArch: Shader 26 bind to kernel 1 '_Z6KernelP4NodePiPbS2_S1_S2_i'
GPGPU-Sim uArch: core: 26, cta: 0 initialized @(1,0)
GPGPU-Sim uArch: Shader 27 bind to kernel 1 '_Z6KernelP4NodePiPbS2_S1_S2_i'
GPGPU-Sim uArch: core: 27, cta: 0 initialized @(1,0)
GPGPU-Sim uArch: Shader 28 bind to kernel 1 '_Z6KernelP4NodePiPbS2_S1_S2_i'
GPGPU-Sim uArch: core: 28, cta: 0 initialized @(1,0)
GPGPU-Sim uArch: Shader 29 bind to kernel 1 '_Z6KernelP4NodePiPbS2_S1_S2_i'
GPGPU-Sim uArch: core: 29, cta: 0 initialized @(1,0)
GPGPU-Sim uArch: Shader 30 bind to kernel 1 '_Z6KernelP4NodePiPbS2_S1_S2_i'
GPGPU-Sim uArch: core: 30, cta: 0 initialized @(1,0)
GPGPU-Sim uArch: Shader 31 bind to kernel 1 '_Z6KernelP4NodePiPbS2_S1_S2_i'
GPGPU-Sim uArch: core: 31, cta: 0 initialized @(1,0)
GPGPU-Sim uArch: Shader 32 bind to kernel 1 '_Z6KernelP4NodePiPbS2_S1_S2_i'
GPGPU-Sim uArch: core: 32, cta: 0 initialized @(1,0)
GPGPU-Sim uArch: Shader 33 bind to kernel 1 '_Z6KernelP4NodePiPbS2_S1_S2_i'
GPGPU-Sim uArch: core: 33, cta: 0 initialized @(1,0)
GPGPU-Sim uArch: Shader 34 bind to kernel 1 '_Z6KernelP4NodePiPbS2_S1_S2_i'
GPGPU-Sim uArch: core: 34, cta: 0 initialized @(1,0)
GPGPU-Sim uArch: Shader 35 bind to kernel 1 '_Z6KernelP4NodePiPbS2_S1_S2_i'
GPGPU-Sim uArch: core: 35, cta: 0 initialized @(1,0)
GPGPU-Sim uArch: Shader 36 bind to kernel 1 '_Z6KernelP4NodePiPbS2_S1_S2_i'
GPGPU-Sim uArch: core: 36, cta: 0 initialized @(1,0)
GPGPU-Sim uArch: Shader 37 bind to kernel 1 '_Z6KernelP4NodePiPbS2_S1_S2_i'
GPGPU-Sim uArch: core: 37, cta: 0 initialized @(1,0)
GPGPU-Sim uArch: Shader 38 bind to kernel 1 '_Z6KernelP4NodePiPbS2_S1_S2_i'
GPGPU-Sim uArch: core: 38, cta: 0 initialized @(1,0)
GPGPU-Sim uArch: Shader 39 bind to kernel 1 '_Z6KernelP4NodePiPbS2_S1_S2_i'
GPGPU-Sim uArch: core: 39, cta: 0 initialized @(1,0)
GPGPU-Sim uArch: Shader 40 bind to kernel 1 '_Z6KernelP4NodePiPbS2_S1_S2_i'
GPGPU-Sim uArch: core: 40, cta: 0 initialized @(1,0)
GPGPU-Sim uArch: Shader 41 bind to kernel 1 '_Z6KernelP4NodePiPbS2_S1_S2_i'
GPGPU-Sim uArch: core: 41, cta: 0 initialized @(1,0)
GPGPU-Sim uArch: Shader 42 bind to kernel 1 '_Z6KernelP4NodePiPbS2_S1_S2_i'
GPGPU-Sim uArch: core: 42, cta: 0 initialized @(1,0)
GPGPU-Sim uArch: Shader 43 bind to kernel 1 '_Z6KernelP4NodePiPbS2_S1_S2_i'
GPGPU-Sim uArch: core: 43, cta: 0 initialized @(1,0)
GPGPU-Sim uArch: Shader 44 bind to kernel 1 '_Z6KernelP4NodePiPbS2_S1_S2_i'
GPGPU-Sim uArch: core: 44, cta: 0 initialized @(1,0)
GPGPU-Sim uArch: Shader 45 bind to kernel 1 '_Z6KernelP4NodePiPbS2_S1_S2_i'
GPGPU-Sim uArch: core: 45, cta: 0 initialized @(1,0)
GPGPU-Sim uArch: Shader 46 bind to kernel 1 '_Z6KernelP4NodePiPbS2_S1_S2_i'
GPGPU-Sim uArch: core: 46, cta: 0 initialized @(1,0)
GPGPU-Sim uArch: Shader 47 bind to kernel 1 '_Z6KernelP4NodePiPbS2_S1_S2_i'
GPGPU-Sim uArch: core: 47, cta: 0 initialized @(1,0)
GPGPU-Sim uArch: Shader 48 bind to kernel 1 '_Z6KernelP4NodePiPbS2_S1_S2_i'
GPGPU-Sim uArch: core: 48, cta: 0 initialized @(1,0)
GPGPU-Sim uArch: Shader 49 bind to kernel 1 '_Z6KernelP4NodePiPbS2_S1_S2_i'
GPGPU-Sim uArch: core: 49, cta: 0 initialized @(1,0)
GPGPU-Sim uArch: Shader 50 bind to kernel 1 '_Z6KernelP4NodePiPbS2_S1_S2_i'
GPGPU-Sim uArch: core: 50, cta: 0 initialized @(1,0)
GPGPU-Sim uArch: Shader 51 bind to kernel 1 '_Z6KernelP4NodePiPbS2_S1_S2_i'
GPGPU-Sim uArch: core: 51, cta: 0 initialized @(1,0)
GPGPU-Sim uArch: Shader 52 bind to kernel 1 '_Z6KernelP4NodePiPbS2_S1_S2_i'
GPGPU-Sim uArch: core: 52, cta: 0 initialized @(1,0)
GPGPU-Sim uArch: Shader 53 bind to kernel 1 '_Z6KernelP4NodePiPbS2_S1_S2_i'
GPGPU-Sim uArch: core: 53, cta: 0 initialized @(1,0)
GPGPU-Sim uArch: Shader 54 bind to kernel 1 '_Z6KernelP4NodePiPbS2_S1_S2_i'
GPGPU-Sim uArch: core: 54, cta: 0 initialized @(1,0)
GPGPU-Sim uArch: Shader 55 bind to kernel 1 '_Z6KernelP4NodePiPbS2_S1_S2_i'
GPGPU-Sim uArch: core: 55, cta: 0 initialized @(1,0)
GPGPU-Sim uArch: Shader 56 bind to kernel 1 '_Z6KernelP4NodePiPbS2_S1_S2_i'
GPGPU-Sim uArch: core: 56, cta: 0 initialized @(1,0)
GPGPU-Sim uArch: Shader 57 bind to kernel 1 '_Z6KernelP4NodePiPbS2_S1_S2_i'
GPGPU-Sim uArch: core: 57, cta: 0 initialized @(1,0)
GPGPU-Sim uArch: Shader 58 bind to kernel 1 '_Z6KernelP4NodePiPbS2_S1_S2_i'
GPGPU-Sim uArch: core: 58, cta: 0 initialized @(1,0)
GPGPU-Sim uArch: Shader 59 bind to kernel 1 '_Z6KernelP4NodePiPbS2_S1_S2_i'
GPGPU-Sim uArch: core: 59, cta: 0 initialized @(1,0)
GPGPU-Sim uArch: Shader 60 bind to kernel 1 '_Z6KernelP4NodePiPbS2_S1_S2_i'
GPGPU-Sim uArch: core: 60, cta: 0 initialized @(1,0)
GPGPU-Sim uArch: Shader 61 bind to kernel 1 '_Z6KernelP4NodePiPbS2_S1_S2_i'
GPGPU-Sim uArch: core: 61, cta: 0 initialized @(1,0)
GPGPU-Sim uArch: Shader 62 bind to kernel 1 '_Z6KernelP4NodePiPbS2_S1_S2_i'
GPGPU-Sim uArch: core: 62, cta: 0 initialized @(1,0)
GPGPU-Sim uArch: Shader 63 bind to kernel 1 '_Z6KernelP4NodePiPbS2_S1_S2_i'
GPGPU-Sim uArch: core: 63, cta: 0 initialized @(1,0)
GPGPU-Sim uArch: Shader 64 bind to kernel 1 '_Z6KernelP4NodePiPbS2_S1_S2_i'
GPGPU-Sim uArch: core: 64, cta: 0 initialized @(1,0)
GPGPU-Sim uArch: Shader 65 bind to kernel 1 '_Z6KernelP4NodePiPbS2_S1_S2_i'
GPGPU-Sim uArch: core: 65, cta: 0 initialized @(1,0)
GPGPU-Sim uArch: Shader 66 bind to kernel 1 '_Z6KernelP4NodePiPbS2_S1_S2_i'
GPGPU-Sim uArch: core: 66, cta: 0 initialized @(1,0)
GPGPU-Sim uArch: Shader 67 bind to kernel 1 '_Z6KernelP4NodePiPbS2_S1_S2_i'
GPGPU-Sim uArch: core: 67, cta: 0 initialized @(1,0)
GPGPU-Sim uArch: Shader 0 bind to kernel 1 '_Z6KernelP4NodePiPbS2_S1_S2_i'
GPGPU-Sim uArch: core:  0, cta: 0 initialized @(1,0)
GPGPU-Sim uArch: core:  1, cta: 1 initialized @(2,0)
GPGPU-Sim uArch: core:  2, cta: 1 initialized @(2,0)
GPGPU-Sim uArch: core:  3, cta: 1 initialized @(2,0)
GPGPU-Sim uArch: core:  4, cta: 1 initialized @(2,0)
GPGPU-Sim uArch: core:  5, cta: 1 initialized @(2,0)
GPGPU-Sim uArch: core:  6, cta: 1 initialized @(2,0)
GPGPU-Sim uArch: core:  7, cta: 1 initialized @(2,0)
GPGPU-Sim uArch: core:  8, cta: 1 initialized @(2,0)
GPGPU-Sim uArch: core:  9, cta: 1 initialized @(2,0)
GPGPU-Sim uArch: core: 10, cta: 1 initialized @(2,0)
GPGPU-Sim uArch: core: 11, cta: 1 initialized @(2,0)
GPGPU-Sim uArch: core: 12, cta: 1 initialized @(2,0)
GPGPU-Sim uArch: core: 13, cta: 1 initialized @(2,0)
GPGPU-Sim uArch: core: 14, cta: 1 initialized @(2,0)
GPGPU-Sim uArch: core: 15, cta: 1 initialized @(2,0)
GPGPU-Sim uArch: core: 16, cta: 1 initialized @(2,0)
GPGPU-Sim uArch: core: 17, cta: 1 initialized @(2,0)
GPGPU-Sim uArch: core: 18, cta: 1 initialized @(2,0)
GPGPU-Sim uArch: core: 19, cta: 1 initialized @(2,0)
GPGPU-Sim uArch: core: 20, cta: 1 initialized @(2,0)
GPGPU-Sim uArch: core: 21, cta: 1 initialized @(2,0)
GPGPU-Sim uArch: core: 22, cta: 1 initialized @(2,0)
GPGPU-Sim uArch: core: 23, cta: 1 initialized @(2,0)
GPGPU-Sim uArch: core: 24, cta: 1 initialized @(2,0)
GPGPU-Sim uArch: core: 25, cta: 1 initialized @(2,0)
GPGPU-Sim uArch: core: 26, cta: 1 initialized @(2,0)
GPGPU-Sim uArch: core: 27, cta: 1 initialized @(2,0)
GPGPU-Sim uArch: core: 28, cta: 1 initialized @(2,0)
GPGPU-Sim uArch: core: 29, cta: 1 initialized @(2,0)
GPGPU-Sim uArch: core: 30, cta: 1 initialized @(2,0)
GPGPU-Sim uArch: core: 31, cta: 1 initialized @(2,0)
GPGPU-Sim uArch: core: 32, cta: 1 initialized @(2,0)
GPGPU-Sim uArch: core: 33, cta: 1 initialized @(2,0)
GPGPU-Sim uArch: core: 34, cta: 1 initialized @(2,0)
GPGPU-Sim uArch: core: 35, cta: 1 initialized @(2,0)
GPGPU-Sim uArch: core: 36, cta: 1 initialized @(2,0)
GPGPU-Sim uArch: core: 37, cta: 1 initialized @(2,0)
GPGPU-Sim uArch: core: 38, cta: 1 initialized @(2,0)
GPGPU-Sim uArch: core: 39, cta: 1 initialized @(2,0)
GPGPU-Sim uArch: core: 40, cta: 1 initialized @(2,0)
GPGPU-Sim uArch: core: 41, cta: 1 initialized @(2,0)
GPGPU-Sim uArch: core: 42, cta: 1 initialized @(2,0)
GPGPU-Sim uArch: core: 43, cta: 1 initialized @(2,0)
GPGPU-Sim uArch: core: 44, cta: 1 initialized @(2,0)
GPGPU-Sim uArch: core: 45, cta: 1 initialized @(2,0)
GPGPU-Sim uArch: core: 46, cta: 1 initialized @(2,0)
GPGPU-Sim uArch: core: 47, cta: 1 initialized @(2,0)
GPGPU-Sim uArch: core: 48, cta: 1 initialized @(2,0)
GPGPU-Sim uArch: core: 49, cta: 1 initialized @(2,0)
GPGPU-Sim uArch: core: 50, cta: 1 initialized @(2,0)
GPGPU-Sim uArch: core: 51, cta: 1 initialized @(2,0)
GPGPU-Sim uArch: core: 52, cta: 1 initialized @(2,0)
GPGPU-Sim uArch: core: 53, cta: 1 initialized @(2,0)
GPGPU-Sim uArch: core: 54, cta: 1 initialized @(2,0)
GPGPU-Sim uArch: core: 55, cta: 1 initialized @(2,0)
GPGPU-Sim uArch: core: 56, cta: 1 initialized @(2,0)
GPGPU-Sim uArch: core: 57, cta: 1 initialized @(2,0)
GPGPU-Sim uArch: core: 58, cta: 1 initialized @(2,0)
GPGPU-Sim uArch: core: 59, cta: 1 initialized @(2,0)
GPGPU-Sim uArch: core: 60, cta: 1 initialized @(2,0)
GPGPU-Sim uArch: core: 61, cta: 1 initialized @(2,0)
GPGPU-Sim uArch: core: 62, cta: 1 initialized @(2,0)
GPGPU-Sim uArch: core: 63, cta: 1 initialized @(2,0)
GPGPU-Sim uArch: core: 64, cta: 1 initialized @(2,0)
GPGPU-Sim uArch: core: 65, cta: 1 initialized @(2,0)
GPGPU-Sim uArch: core: 66, cta: 1 initialized @(2,0)
GPGPU-Sim uArch: core: 67, cta: 1 initialized @(2,0)
GPGPU-Sim uArch: core:  0, cta: 1 initialized @(2,0)
GPGPU-Sim uArch: core:  1, cta: 2 initialized @(3,0)
GPGPU-Sim uArch: core:  2, cta: 2 initialized @(3,0)
GPGPU-Sim uArch: core:  3, cta: 2 initialized @(3,0)
GPGPU-Sim uArch: core:  4, cta: 2 initialized @(3,0)
GPGPU-Sim uArch: core:  5, cta: 2 initialized @(3,0)
GPGPU-Sim uArch: core:  6, cta: 2 initialized @(3,0)
GPGPU-Sim uArch: core:  7, cta: 2 initialized @(3,0)
GPGPU-Sim uArch: core:  8, cta: 2 initialized @(3,0)
GPGPU-Sim uArch: core:  9, cta: 2 initialized @(3,0)
GPGPU-Sim uArch: core: 10, cta: 2 initialized @(3,0)
GPGPU-Sim uArch: core: 11, cta: 2 initialized @(3,0)
GPGPU-Sim uArch: core: 12, cta: 2 initialized @(3,0)
GPGPU-Sim uArch: core: 13, cta: 2 initialized @(3,0)
GPGPU-Sim uArch: core: 14, cta: 2 initialized @(3,0)
GPGPU-Sim uArch: core: 15, cta: 2 initialized @(3,0)
GPGPU-Sim uArch: core: 16, cta: 2 initialized @(3,0)
GPGPU-Sim uArch: core: 17, cta: 2 initialized @(3,0)
GPGPU-Sim uArch: core: 18, cta: 2 initialized @(3,0)
GPGPU-Sim uArch: core: 19, cta: 2 initialized @(3,0)
GPGPU-Sim uArch: core: 20, cta: 2 initialized @(3,0)
GPGPU-Sim uArch: core: 21, cta: 2 initialized @(3,0)
GPGPU-Sim uArch: core: 22, cta: 2 initialized @(3,0)
GPGPU-Sim uArch: core: 23, cta: 2 initialized @(3,0)
GPGPU-Sim uArch: core: 24, cta: 2 initialized @(3,0)
GPGPU-Sim uArch: core: 25, cta: 2 initialized @(3,0)
GPGPU-Sim uArch: core: 26, cta: 2 initialized @(3,0)
GPGPU-Sim uArch: core: 27, cta: 2 initialized @(3,0)
GPGPU-Sim uArch: core: 28, cta: 2 initialized @(3,0)
GPGPU-Sim uArch: core: 29, cta: 2 initialized @(3,0)
GPGPU-Sim uArch: core: 30, cta: 2 initialized @(3,0)
GPGPU-Sim uArch: core: 31, cta: 2 initialized @(3,0)
GPGPU-Sim uArch: core: 32, cta: 2 initialized @(3,0)
GPGPU-Sim uArch: core: 33, cta: 2 initialized @(3,0)
GPGPU-Sim uArch: core: 34, cta: 2 initialized @(3,0)
GPGPU-Sim uArch: core: 35, cta: 2 initialized @(3,0)
GPGPU-Sim uArch: core: 36, cta: 2 initialized @(3,0)
GPGPU-Sim uArch: core: 37, cta: 2 initialized @(3,0)
GPGPU-Sim uArch: core: 38, cta: 2 initialized @(3,0)
GPGPU-Sim uArch: core: 39, cta: 2 initialized @(3,0)
GPGPU-Sim uArch: core: 40, cta: 2 initialized @(3,0)
GPGPU-Sim uArch: core: 41, cta: 2 initialized @(3,0)
GPGPU-Sim uArch: core: 42, cta: 2 initialized @(3,0)
GPGPU-Sim uArch: core: 43, cta: 2 initialized @(3,0)
GPGPU-Sim uArch: core: 44, cta: 2 initialized @(3,0)
GPGPU-Sim uArch: core: 45, cta: 2 initialized @(3,0)
GPGPU-Sim uArch: core: 46, cta: 2 initialized @(3,0)
GPGPU-Sim uArch: core: 47, cta: 2 initialized @(3,0)
GPGPU-Sim uArch: core: 48, cta: 2 initialized @(3,0)
GPGPU-Sim uArch: core: 49, cta: 2 initialized @(3,0)
GPGPU-Sim uArch: core: 50, cta: 2 initialized @(3,0)
GPGPU-Sim uArch: core: 51, cta: 2 initialized @(3,0)
GPGPU-Sim uArch: core: 52, cta: 2 initialized @(3,0)
GPGPU-Sim uArch: core: 53, cta: 2 initialized @(3,0)
GPGPU-Sim uArch: core: 54, cta: 2 initialized @(3,0)
GPGPU-Sim uArch: core: 55, cta: 2 initialized @(3,0)
GPGPU-Sim uArch: core: 56, cta: 2 initialized @(3,0)
GPGPU-Sim uArch: core: 57, cta: 2 initialized @(3,0)
GPGPU-Sim uArch: core: 58, cta: 2 initialized @(3,0)
GPGPU-Sim uArch: core: 59, cta: 2 initialized @(3,0)
GPGPU-Sim uArch: core: 60, cta: 2 initialized @(3,0)
GPGPU-Sim uArch: core: 61, cta: 2 initialized @(3,0)
GPGPU-Sim uArch: core: 62, cta: 2 initialized @(3,0)
GPGPU-Sim uArch: core: 63, cta: 2 initialized @(3,0)
GPGPU-Sim uArch: core: 64, cta: 2 initialized @(3,0)
GPGPU-Sim uArch: core: 65, cta: 2 initialized @(3,0)
GPGPU-Sim uArch: core: 66, cta: 2 initialized @(3,0)
GPGPU-Sim uArch: core: 67, cta: 2 initialized @(3,0)
GPGPU-Sim uArch: core:  0, cta: 2 initialized @(3,0)
GPGPU-Sim uArch: core:  1, cta: 3 initialized @(4,0)
GPGPU-Sim uArch: core:  2, cta: 3 initialized @(4,0)
GPGPU-Sim uArch: core:  3, cta: 3 initialized @(4,0)
GPGPU-Sim uArch: core:  4, cta: 3 initialized @(4,0)
GPGPU-Sim uArch: core:  5, cta: 3 initialized @(4,0)
GPGPU-Sim uArch: core:  6, cta: 3 initialized @(4,0)
GPGPU-Sim uArch: core:  7, cta: 3 initialized @(4,0)
GPGPU-Sim uArch: core:  8, cta: 3 initialized @(4,0)
GPGPU-Sim uArch: core:  9, cta: 3 initialized @(4,0)
GPGPU-Sim uArch: core: 10, cta: 3 initialized @(4,0)
GPGPU-Sim uArch: core: 11, cta: 3 initialized @(4,0)
GPGPU-Sim uArch: core: 12, cta: 3 initialized @(4,0)
GPGPU-Sim uArch: core: 13, cta: 3 initialized @(4,0)
GPGPU-Sim uArch: core: 14, cta: 3 initialized @(4,0)
GPGPU-Sim uArch: core: 15, cta: 3 initialized @(4,0)
GPGPU-Sim uArch: core: 16, cta: 3 initialized @(4,0)
GPGPU-Sim uArch: core: 17, cta: 3 initialized @(4,0)
GPGPU-Sim uArch: core: 18, cta: 3 initialized @(4,0)
GPGPU-Sim uArch: core: 19, cta: 3 initialized @(4,0)
GPGPU-Sim uArch: core: 20, cta: 3 initialized @(4,0)
GPGPU-Sim uArch: core: 21, cta: 3 initialized @(4,0)
GPGPU-Sim uArch: core: 22, cta: 3 initialized @(4,0)
GPGPU-Sim uArch: core: 23, cta: 3 initialized @(4,0)
GPGPU-Sim uArch: core: 24, cta: 3 initialized @(4,0)
GPGPU-Sim uArch: core: 25, cta: 3 initialized @(4,0)
GPGPU-Sim uArch: core: 26, cta: 3 initialized @(4,0)
GPGPU-Sim uArch: core: 27, cta: 3 initialized @(4,0)
GPGPU-Sim uArch: core: 28, cta: 3 initialized @(4,0)
GPGPU-Sim uArch: core: 29, cta: 3 initialized @(4,0)
GPGPU-Sim uArch: core: 30, cta: 3 initialized @(4,0)
GPGPU-Sim uArch: core: 31, cta: 3 initialized @(4,0)
GPGPU-Sim uArch: core: 32, cta: 3 initialized @(4,0)
GPGPU-Sim uArch: core: 33, cta: 3 initialized @(4,0)
GPGPU-Sim uArch: core: 34, cta: 3 initialized @(4,0)
GPGPU-Sim uArch: core: 35, cta: 3 initialized @(4,0)
GPGPU-Sim uArch: core: 36, cta: 3 initialized @(4,0)
GPGPU-Sim uArch: core: 37, cta: 3 initialized @(4,0)
GPGPU-Sim uArch: core: 38, cta: 3 initialized @(4,0)
GPGPU-Sim uArch: core: 39, cta: 3 initialized @(4,0)
GPGPU-Sim uArch: core: 40, cta: 3 initialized @(4,0)
GPGPU-Sim uArch: core: 41, cta: 3 initialized @(4,0)
GPGPU-Sim uArch: core: 42, cta: 3 initialized @(4,0)
GPGPU-Sim uArch: core: 43, cta: 3 initialized @(4,0)
GPGPU-Sim uArch: core: 44, cta: 3 initialized @(4,0)
GPGPU-Sim uArch: core: 45, cta: 3 initialized @(4,0)
GPGPU-Sim uArch: core: 46, cta: 3 initialized @(4,0)
GPGPU-Sim uArch: core: 47, cta: 3 initialized @(4,0)
GPGPU-Sim uArch: core: 48, cta: 3 initialized @(4,0)
GPGPU-Sim uArch: core: 49, cta: 3 initialized @(4,0)
GPGPU-Sim uArch: core: 50, cta: 3 initialized @(4,0)
GPGPU-Sim uArch: core: 51, cta: 3 initialized @(4,0)
GPGPU-Sim uArch: core: 52, cta: 3 initialized @(4,0)
GPGPU-Sim uArch: cycles simulated: 500  inst.: 0 (ipc= 0.0) sim_rate=0 (inst/sec) elapsed = 0:0:00:02 / Sat Apr 24 01:54:18 2021
GPGPU-Sim PTX: 100000 instructions simulated : ctaid=(0,0,0) tid=(127,0,0)
GPGPU-Sim PTX: 200000 instructions simulated : ctaid=(76,0,0) tid=(63,0,0)
GPGPU-Sim PTX: 300000 instructions simulated : ctaid=(93,0,0) tid=(63,0,0)
GPGPU-Sim uArch: cycles simulated: 1000  inst.: 260320 (ipc=260.3) sim_rate=65080 (inst/sec) elapsed = 0:0:00:04 / Sat Apr 24 01:54:20 2021
GPGPU-Sim PTX: 400000 instructions simulated : ctaid=(205,0,0) tid=(95,0,0)
GPGPU-Sim PTX: 500000 instructions simulated : ctaid=(104,0,0) tid=(223,0,0)
GPGPU-Sim PTX: 600000 instructions simulated : ctaid=(65,0,0) tid=(95,0,0)
GPGPU-Sim PTX: 700000 instructions simulated : ctaid=(123,0,0) tid=(159,0,0)
GPGPU-Sim PTX: 800000 instructions simulated : ctaid=(241,0,0) tid=(95,0,0)
GPGPU-Sim PTX: 900000 instructions simulated : ctaid=(178,0,0) tid=(191,0,0)
GPGPU-Sim PTX: 1000000 instructions simulated : ctaid=(250,0,0) tid=(63,0,0)
GPGPU-Sim PTX: 1100000 instructions simulated : ctaid=(142,0,0) tid=(159,0,0)
GPGPU-Sim PTX: 1200000 instructions simulated : ctaid=(217,0,0) tid=(255,0,0)
GPGPU-Sim uArch: cycles simulated: 1500  inst.: 1158432 (ipc=772.3) sim_rate=193072 (inst/sec) elapsed = 0:0:00:06 / Sat Apr 24 01:54:22 2021
GPGPU-Sim PTX: 1300000 instructions simulated : ctaid=(109,0,0) tid=(127,0,0)
GPGPU-Sim PTX: 1400000 instructions simulated : ctaid=(189,0,0) tid=(31,0,0)
GPGPU-Sim PTX: 1500000 instructions simulated : ctaid=(194,0,0) tid=(255,0,0)
GPGPU-Sim PTX: 1600000 instructions simulated : ctaid=(160,0,0) tid=(31,0,0)
GPGPU-Sim uArch: Shader 0 finished CTA #0 (1937,0), 2 CTAs running
GPGPU-Sim uArch: Shader 0 finished CTA #1 (1937,0), 1 CTAs running
GPGPU-Sim uArch: Shader 1 finished CTA #1 (1940,0), 3 CTAs running
GPGPU-Sim uArch: Shader 0 finished CTA #2 (1944,0), 0 CTAs running
GPGPU-Sim uArch: Shader 0 empty (release kernel 1 '_Z6KernelP4NodePiPbS2_S1_S2_i').
GPGPU-Sim uArch: Shader 3 finished CTA #0 (1945,0), 3 CTAs running
GPGPU-Sim uArch: Shader 3 finished CTA #1 (1945,0), 2 CTAs running
GPGPU-Sim PTX: 1700000 instructions simulated : ctaid=(72,0,0) tid=(122,0,0)
GPGPU-Sim uArch: Shader 3 finished CTA #2 (1951,0), 1 CTAs running
GPGPU-Sim uArch: Shader 1 finished CTA #2 (1954,0), 2 CTAs running
GPGPU-Sim uArch: Shader 1 finished CTA #3 (1956,0), 1 CTAs running
GPGPU-Sim uArch: Shader 3 finished CTA #3 (1958,0), 0 CTAs running
GPGPU-Sim uArch: Shader 3 empty (release kernel 1 '_Z6KernelP4NodePiPbS2_S1_S2_i').
GPGPU-Sim uArch: Shader 4 finished CTA #0 (1958,0), 3 CTAs running
GPGPU-Sim uArch: Shader 4 finished CTA #1 (1958,0), 2 CTAs running
GPGPU-Sim uArch: Shader 4 finished CTA #2 (1962,0), 1 CTAs running
GPGPU-Sim uArch: Shader 5 finished CTA #0 (1963,0), 3 CTAs running
GPGPU-Sim uArch: Shader 5 finished CTA #1 (1963,0), 2 CTAs running
GPGPU-Sim uArch: Shader 2 finished CTA #0 (1969,0), 3 CTAs running
GPGPU-Sim uArch: Shader 2 finished CTA #1 (1969,0), 2 CTAs running
GPGPU-Sim uArch: Shader 5 finished CTA #2 (1969,0), 1 CTAs running
GPGPU-Sim uArch: Shader 4 finished CTA #3 (1970,0), 0 CTAs running
GPGPU-Sim uArch: Shader 4 empty (release kernel 1 '_Z6KernelP4NodePiPbS2_S1_S2_i').
GPGPU-Sim uArch: Shader 2 finished CTA #2 (1975,0), 1 CTAs running
GPGPU-Sim uArch: Shader 5 finished CTA #3 (1976,0), 0 CTAs running
GPGPU-Sim uArch: Shader 5 empty (release kernel 1 '_Z6KernelP4NodePiPbS2_S1_S2_i').
GPGPU-Sim uArch: Shader 7 finished CTA #0 (1976,0), 3 CTAs running
GPGPU-Sim uArch: Shader 7 finished CTA #1 (1976,0), 2 CTAs running
GPGPU-Sim uArch: Shader 8 finished CTA #0 (1976,0), 3 CTAs running
GPGPU-Sim uArch: Shader 7 finished CTA #2 (1981,0), 1 CTAs running
GPGPU-Sim uArch: Shader 2 finished CTA #3 (1982,0), 0 CTAs running
GPGPU-Sim uArch: Shader 2 empty (release kernel 1 '_Z6KernelP4NodePiPbS2_S1_S2_i').
GPGPU-Sim uArch: Shader 6 finished CTA #0 (1982,0), 3 CTAs running
GPGPU-Sim uArch: Shader 6 finished CTA #1 (1982,0), 2 CTAs running
GPGPU-Sim uArch: Shader 9 finished CTA #0 (1983,0), 3 CTAs running
GPGPU-Sim uArch: Shader 6 finished CTA #2 (1986,0), 1 CTAs running
GPGPU-Sim uArch: Shader 7 finished CTA #3 (1988,0), 0 CTAs running
GPGPU-Sim uArch: Shader 7 empty (release kernel 1 '_Z6KernelP4NodePiPbS2_S1_S2_i').
GPGPU-Sim uArch: Shader 10 finished CTA #0 (1988,0), 3 CTAs running
GPGPU-Sim uArch: Shader 8 finished CTA #1 (1991,0), 2 CTAs running
GPGPU-Sim uArch: Shader 8 finished CTA #2 (1993,0), 1 CTAs running
GPGPU-Sim uArch: Shader 6 finished CTA #3 (1994,0), 0 CTAs running
GPGPU-Sim uArch: Shader 6 empty (release kernel 1 '_Z6KernelP4NodePiPbS2_S1_S2_i').
GPGPU-Sim uArch: Shader 11 finished CTA #0 (1996,0), 3 CTAs running
GPGPU-Sim uArch: Shader 9 finished CTA #1 (1999,0), 2 CTAs running
GPGPU-Sim uArch: Shader 9 finished CTA #2 (1999,0), 1 CTAs running
GPGPU-Sim uArch: cycles simulated: 2000  inst.: 1678212 (ipc=839.1) sim_rate=186468 (inst/sec) elapsed = 0:0:00:09 / Sat Apr 24 01:54:25 2021
GPGPU-Sim uArch: Shader 8 finished CTA #3 (2000,0), 0 CTAs running
GPGPU-Sim uArch: Shader 8 empty (release kernel 1 '_Z6KernelP4NodePiPbS2_S1_S2_i').
GPGPU-Sim uArch: Shader 12 finished CTA #0 (2001,0), 3 CTAs running
GPGPU-Sim uArch: Shader 10 finished CTA #1 (2005,0), 2 CTAs running
GPGPU-Sim uArch: Shader 10 finished CTA #2 (2005,0), 1 CTAs running
GPGPU-Sim uArch: Shader 9 finished CTA #3 (2006,0), 0 CTAs running
GPGPU-Sim uArch: Shader 9 empty (release kernel 1 '_Z6KernelP4NodePiPbS2_S1_S2_i').
GPGPU-Sim uArch: Shader 13 finished CTA #0 (2006,0), 3 CTAs running
GPGPU-Sim uArch: Shader 11 finished CTA #1 (2011,0), 2 CTAs running
GPGPU-Sim uArch: Shader 11 finished CTA #2 (2011,0), 1 CTAs running
GPGPU-Sim uArch: Shader 10 finished CTA #3 (2012,0), 0 CTAs running
GPGPU-Sim uArch: Shader 10 empty (release kernel 1 '_Z6KernelP4NodePiPbS2_S1_S2_i').
GPGPU-Sim uArch: Shader 12 finished CTA #1 (2013,0), 2 CTAs running
GPGPU-Sim uArch: Shader 12 finished CTA #2 (2017,0), 1 CTAs running
GPGPU-Sim uArch: Shader 14 finished CTA #0 (2017,0), 3 CTAs running
GPGPU-Sim uArch: Shader 11 finished CTA #3 (2018,0), 0 CTAs running
GPGPU-Sim uArch: Shader 11 empty (release kernel 1 '_Z6KernelP4NodePiPbS2_S1_S2_i').
GPGPU-Sim uArch: Shader 13 finished CTA #1 (2023,0), 2 CTAs running
GPGPU-Sim uArch: Shader 13 finished CTA #2 (2023,0), 1 CTAs running
GPGPU-Sim uArch: Shader 15 finished CTA #0 (2023,0), 3 CTAs running
GPGPU-Sim uArch: Shader 12 finished CTA #3 (2024,0), 0 CTAs running
GPGPU-Sim uArch: Shader 12 empty (release kernel 1 '_Z6KernelP4NodePiPbS2_S1_S2_i').
GPGPU-Sim uArch: Shader 14 finished CTA #1 (2028,0), 2 CTAs running
GPGPU-Sim uArch: Shader 14 finished CTA #2 (2028,0), 1 CTAs running
GPGPU-Sim uArch: Shader 16 finished CTA #0 (2029,0), 3 CTAs running
GPGPU-Sim uArch: Shader 13 finished CTA #3 (2030,0), 0 CTAs running
GPGPU-Sim uArch: Shader 13 empty (release kernel 1 '_Z6KernelP4NodePiPbS2_S1_S2_i').
GPGPU-Sim uArch: Shader 15 finished CTA #2 (2033,0), 2 CTAs running
GPGPU-Sim uArch: Shader 15 finished CTA #1 (2035,0), 1 CTAs running
GPGPU-Sim uArch: Shader 14 finished CTA #3 (2036,0), 0 CTAs running
GPGPU-Sim uArch: Shader 14 empty (release kernel 1 '_Z6KernelP4NodePiPbS2_S1_S2_i').
GPGPU-Sim uArch: Shader 16 finished CTA #1 (2041,0), 2 CTAs running
GPGPU-Sim uArch: Shader 16 finished CTA #2 (2041,0), 1 CTAs running
GPGPU-Sim uArch: Shader 15 finished CTA #3 (2042,0), 0 CTAs running
GPGPU-Sim uArch: Shader 15 empty (release kernel 1 '_Z6KernelP4NodePiPbS2_S1_S2_i').
GPGPU-Sim uArch: Shader 17 finished CTA #0 (2047,0), 3 CTAs running
GPGPU-Sim uArch: Shader 17 finished CTA #1 (2047,0), 2 CTAs running
GPGPU-Sim uArch: Shader 17 finished CTA #2 (2047,0), 1 CTAs running
GPGPU-Sim uArch: Shader 16 finished CTA #3 (2048,0), 0 CTAs running
GPGPU-Sim uArch: Shader 16 empty (release kernel 1 '_Z6KernelP4NodePiPbS2_S1_S2_i').
GPGPU-Sim uArch: Shader 19 finished CTA #0 (2048,0), 3 CTAs running
GPGPU-Sim uArch: Shader 18 finished CTA #0 (2053,0), 3 CTAs running
GPGPU-Sim uArch: Shader 18 finished CTA #1 (2053,0), 2 CTAs running
GPGPU-Sim uArch: Shader 18 finished CTA #2 (2053,0), 1 CTAs running
GPGPU-Sim uArch: Shader 17 finished CTA #3 (2054,0), 0 CTAs running
GPGPU-Sim uArch: Shader 17 empty (release kernel 1 '_Z6KernelP4NodePiPbS2_S1_S2_i').
GPGPU-Sim uArch: Shader 20 finished CTA #0 (2054,0), 3 CTAs running
GPGPU-Sim uArch: Shader 19 finished CTA #2 (2057,0), 2 CTAs running
GPGPU-Sim uArch: Shader 19 finished CTA #1 (2059,0), 1 CTAs running
GPGPU-Sim uArch: Shader 22 finished CTA #0 (2059,0), 3 CTAs running
GPGPU-Sim uArch: Shader 18 finished CTA #3 (2060,0), 0 CTAs running
GPGPU-Sim uArch: Shader 18 empty (release kernel 1 '_Z6KernelP4NodePiPbS2_S1_S2_i').
GPGPU-Sim uArch: Shader 20 finished CTA #1 (2065,0), 2 CTAs running
GPGPU-Sim uArch: Shader 20 finished CTA #2 (2065,0), 1 CTAs running
GPGPU-Sim uArch: Shader 19 finished CTA #3 (2066,0), 0 CTAs running
GPGPU-Sim uArch: Shader 19 empty (release kernel 1 '_Z6KernelP4NodePiPbS2_S1_S2_i').
GPGPU-Sim uArch: Shader 21 finished CTA #0 (2068,0), 3 CTAs running
GPGPU-Sim uArch: Shader 22 finished CTA #1 (2070,0), 2 CTAs running
GPGPU-Sim uArch: Shader 22 finished CTA #2 (2070,0), 1 CTAs running
GPGPU-Sim uArch: Shader 23 finished CTA #0 (2070,0), 3 CTAs running
GPGPU-Sim uArch: Shader 20 finished CTA #3 (2072,0), 0 CTAs running
GPGPU-Sim uArch: Shader 20 empty (release kernel 1 '_Z6KernelP4NodePiPbS2_S1_S2_i').
GPGPU-Sim uArch: Shader 21 finished CTA #1 (2076,0), 2 CTAs running
GPGPU-Sim uArch: Shader 21 finished CTA #2 (2076,0), 1 CTAs running
GPGPU-Sim uArch: Shader 22 finished CTA #3 (2078,0), 0 CTAs running
GPGPU-Sim uArch: Shader 22 empty (release kernel 1 '_Z6KernelP4NodePiPbS2_S1_S2_i').
GPGPU-Sim uArch: Shader 24 finished CTA #0 (2079,0), 3 CTAs running
GPGPU-Sim uArch: Shader 23 finished CTA #1 (2083,0), 2 CTAs running
GPGPU-Sim uArch: Shader 23 finished CTA #2 (2083,0), 1 CTAs running
GPGPU-Sim uArch: Shader 21 finished CTA #3 (2084,0), 0 CTAs running
GPGPU-Sim uArch: Shader 21 empty (release kernel 1 '_Z6KernelP4NodePiPbS2_S1_S2_i').
GPGPU-Sim uArch: Shader 25 finished CTA #0 (2087,0), 3 CTAs running
GPGPU-Sim uArch: Shader 25 finished CTA #1 (2087,0), 2 CTAs running
GPGPU-Sim uArch: Shader 24 finished CTA #1 (2088,0), 2 CTAs running
GPGPU-Sim uArch: Shader 24 finished CTA #2 (2088,0), 1 CTAs running
GPGPU-Sim uArch: Shader 23 finished CTA #3 (2090,0), 0 CTAs running
GPGPU-Sim uArch: Shader 23 empty (release kernel 1 '_Z6KernelP4NodePiPbS2_S1_S2_i').
GPGPU-Sim uArch: Shader 25 finished CTA #3 (2094,0), 1 CTAs running
GPGPU-Sim uArch: Shader 24 finished CTA #3 (2096,0), 0 CTAs running
GPGPU-Sim uArch: Shader 24 empty (release kernel 1 '_Z6KernelP4NodePiPbS2_S1_S2_i').
GPGPU-Sim uArch: Shader 26 finished CTA #0 (2101,0), 3 CTAs running
GPGPU-Sim uArch: Shader 26 finished CTA #1 (2101,0), 2 CTAs running
GPGPU-Sim uArch: Shader 26 finished CTA #2 (2101,0), 1 CTAs running
GPGPU-Sim uArch: Shader 25 finished CTA #2 (2102,0), 0 CTAs running
GPGPU-Sim uArch: Shader 25 empty (release kernel 1 '_Z6KernelP4NodePiPbS2_S1_S2_i').
GPGPU-Sim uArch: Shader 27 finished CTA #0 (2107,0), 3 CTAs running
GPGPU-Sim uArch: Shader 27 finished CTA #1 (2107,0), 2 CTAs running
GPGPU-Sim uArch: Shader 27 finished CTA #2 (2107,0), 1 CTAs running
GPGPU-Sim uArch: Shader 26 finished CTA #3 (2108,0), 0 CTAs running
GPGPU-Sim uArch: Shader 26 empty (release kernel 1 '_Z6KernelP4NodePiPbS2_S1_S2_i').
GPGPU-Sim uArch: Shader 27 finished CTA #3 (2114,0), 0 CTAs running
GPGPU-Sim uArch: Shader 27 empty (release kernel 1 '_Z6KernelP4NodePiPbS2_S1_S2_i').
GPGPU-Sim uArch: Shader 30 finished CTA #0 (2137,0), 3 CTAs running
GPGPU-Sim uArch: Shader 30 finished CTA #1 (2148,0), 2 CTAs running
GPGPU-Sim uArch: Shader 30 finished CTA #2 (2148,0), 1 CTAs running
GPGPU-Sim PTX: 1800000 instructions simulated : ctaid=(31,0,0) tid=(90,0,0)
GPGPU-Sim uArch: Shader 29 finished CTA #0 (2153,0), 3 CTAs running
GPGPU-Sim uArch: Shader 30 finished CTA #3 (2156,0), 0 CTAs running
GPGPU-Sim uArch: Shader 30 empty (release kernel 1 '_Z6KernelP4NodePiPbS2_S1_S2_i').
GPGPU-Sim uArch: Shader 29 finished CTA #2 (2159,0), 2 CTAs running
GPGPU-Sim uArch: Shader 28 finished CTA #0 (2161,0), 3 CTAs running
GPGPU-Sim uArch: Shader 28 finished CTA #1 (2161,0), 2 CTAs running
GPGPU-Sim uArch: Shader 28 finished CTA #2 (2161,0), 1 CTAs running
GPGPU-Sim uArch: Shader 32 finished CTA #0 (2162,0), 3 CTAs running
GPGPU-Sim uArch: Shader 28 finished CTA #3 (2168,0), 0 CTAs running
GPGPU-Sim uArch: Shader 28 empty (release kernel 1 '_Z6KernelP4NodePiPbS2_S1_S2_i').
GPGPU-Sim uArch: Shader 29 finished CTA #3 (2170,0), 1 CTAs running
GPGPU-Sim uArch: Shader 32 finished CTA #1 (2173,0), 2 CTAs running
GPGPU-Sim uArch: Shader 32 finished CTA #2 (2173,0), 1 CTAs running
GPGPU-Sim uArch: Shader 29 finished CTA #1 (2174,0), 0 CTAs running
GPGPU-Sim uArch: Shader 29 empty (release kernel 1 '_Z6KernelP4NodePiPbS2_S1_S2_i').
GPGPU-Sim uArch: Shader 33 finished CTA #1 (2174,0), 3 CTAs running
GPGPU-Sim uArch: Shader 33 finished CTA #2 (2174,0), 2 CTAs running
GPGPU-Sim uArch: Shader 31 finished CTA #0 (2175,0), 3 CTAs running
GPGPU-Sim uArch: Shader 32 finished CTA #3 (2180,0), 0 CTAs running
GPGPU-Sim uArch: Shader 32 empty (release kernel 1 '_Z6KernelP4NodePiPbS2_S1_S2_i').
GPGPU-Sim uArch: Shader 31 finished CTA #1 (2183,0), 2 CTAs running
GPGPU-Sim uArch: Shader 33 finished CTA #0 (2184,0), 1 CTAs running
GPGPU-Sim uArch: Shader 31 finished CTA #2 (2185,0), 1 CTAs running
GPGPU-Sim uArch: Shader 33 finished CTA #3 (2186,0), 0 CTAs running
GPGPU-Sim uArch: Shader 33 empty (release kernel 1 '_Z6KernelP4NodePiPbS2_S1_S2_i').
GPGPU-Sim uArch: Shader 34 finished CTA #0 (2187,0), 3 CTAs running
GPGPU-Sim uArch: Shader 34 finished CTA #1 (2187,0), 2 CTAs running
GPGPU-Sim uArch: Shader 34 finished CTA #2 (2190,0), 1 CTAs running
GPGPU-Sim uArch: Shader 36 finished CTA #0 (2191,0), 3 CTAs running
GPGPU-Sim uArch: Shader 31 finished CTA #3 (2192,0), 0 CTAs running
GPGPU-Sim uArch: Shader 31 empty (release kernel 1 '_Z6KernelP4NodePiPbS2_S1_S2_i').
GPGPU-Sim uArch: Shader 37 finished CTA #0 (2196,0), 3 CTAs running
GPGPU-Sim uArch: Shader 35 finished CTA #0 (2197,0), 3 CTAs running
GPGPU-Sim uArch: Shader 35 finished CTA #1 (2197,0), 2 CTAs running
GPGPU-Sim uArch: Shader 35 finished CTA #2 (2197,0), 1 CTAs running
GPGPU-Sim uArch: Shader 34 finished CTA #3 (2198,0), 0 CTAs running
GPGPU-Sim uArch: Shader 34 empty (release kernel 1 '_Z6KernelP4NodePiPbS2_S1_S2_i').
GPGPU-Sim uArch: Shader 38 finished CTA #0 (2202,0), 3 CTAs running
GPGPU-Sim uArch: Shader 36 finished CTA #1 (2203,0), 2 CTAs running
GPGPU-Sim uArch: Shader 36 finished CTA #2 (2203,0), 1 CTAs running
GPGPU-Sim uArch: Shader 35 finished CTA #3 (2204,0), 0 CTAs running
GPGPU-Sim uArch: Shader 35 empty (release kernel 1 '_Z6KernelP4NodePiPbS2_S1_S2_i').
GPGPU-Sim uArch: Shader 37 finished CTA #1 (2209,0), 2 CTAs running
GPGPU-Sim uArch: Shader 37 finished CTA #2 (2209,0), 1 CTAs running
GPGPU-Sim uArch: Shader 36 finished CTA #3 (2210,0), 0 CTAs running
GPGPU-Sim uArch: Shader 36 empty (release kernel 1 '_Z6KernelP4NodePiPbS2_S1_S2_i').
GPGPU-Sim uArch: Shader 39 finished CTA #0 (2210,0), 3 CTAs running
GPGPU-Sim uArch: Shader 38 finished CTA #1 (2215,0), 2 CTAs running
GPGPU-Sim uArch: Shader 38 finished CTA #2 (2215,0), 1 CTAs running
GPGPU-Sim uArch: Shader 37 finished CTA #3 (2216,0), 0 CTAs running
GPGPU-Sim uArch: Shader 37 empty (release kernel 1 '_Z6KernelP4NodePiPbS2_S1_S2_i').
GPGPU-Sim uArch: Shader 39 finished CTA #1 (2221,0), 2 CTAs running
GPGPU-Sim uArch: Shader 39 finished CTA #2 (2221,0), 1 CTAs running
GPGPU-Sim uArch: Shader 38 finished CTA #3 (2222,0), 0 CTAs running
GPGPU-Sim uArch: Shader 38 empty (release kernel 1 '_Z6KernelP4NodePiPbS2_S1_S2_i').
GPGPU-Sim uArch: Shader 41 finished CTA #0 (2223,0), 3 CTAs running
GPGPU-Sim uArch: Shader 40 finished CTA #0 (2227,0), 3 CTAs running
GPGPU-Sim uArch: Shader 40 finished CTA #1 (2227,0), 2 CTAs running
GPGPU-Sim uArch: Shader 40 finished CTA #2 (2227,0), 1 CTAs running
GPGPU-Sim uArch: Shader 39 finished CTA #3 (2228,0), 0 CTAs running
GPGPU-Sim uArch: Shader 39 empty (release kernel 1 '_Z6KernelP4NodePiPbS2_S1_S2_i').
GPGPU-Sim uArch: Shader 42 finished CTA #0 (2230,0), 3 CTAs running
GPGPU-Sim uArch: Shader 41 finished CTA #1 (2233,0), 2 CTAs running
GPGPU-Sim uArch: Shader 41 finished CTA #2 (2233,0), 1 CTAs running
GPGPU-Sim uArch: Shader 43 finished CTA #0 (2233,0), 3 CTAs running
GPGPU-Sim uArch: Shader 40 finished CTA #3 (2234,0), 0 CTAs running
GPGPU-Sim uArch: Shader 40 empty (release kernel 1 '_Z6KernelP4NodePiPbS2_S1_S2_i').
GPGPU-Sim uArch: Shader 42 finished CTA #1 (2239,0), 2 CTAs running
GPGPU-Sim uArch: Shader 42 finished CTA #2 (2239,0), 1 CTAs running
GPGPU-Sim uArch: Shader 41 finished CTA #3 (2240,0), 0 CTAs running
GPGPU-Sim uArch: Shader 41 empty (release kernel 1 '_Z6KernelP4NodePiPbS2_S1_S2_i').
GPGPU-Sim uArch: Shader 44 finished CTA #0 (2240,0), 3 CTAs running
GPGPU-Sim uArch: Shader 43 finished CTA #2 (2243,0), 2 CTAs running
GPGPU-Sim uArch: Shader 43 finished CTA #1 (2245,0), 1 CTAs running
GPGPU-Sim uArch: Shader 42 finished CTA #3 (2246,0), 0 CTAs running
GPGPU-Sim uArch: Shader 42 empty (release kernel 1 '_Z6KernelP4NodePiPbS2_S1_S2_i').
GPGPU-Sim uArch: Shader 44 finished CTA #2 (2249,0), 2 CTAs running
GPGPU-Sim uArch: Shader 44 finished CTA #1 (2251,0), 1 CTAs running
GPGPU-Sim uArch: Shader 43 finished CTA #3 (2252,0), 0 CTAs running
GPGPU-Sim uArch: Shader 43 empty (release kernel 1 '_Z6KernelP4NodePiPbS2_S1_S2_i').
GPGPU-Sim uArch: Shader 47 finished CTA #0 (2253,0), 3 CTAs running
GPGPU-Sim uArch: Shader 45 finished CTA #0 (2257,0), 3 CTAs running
GPGPU-Sim uArch: Shader 45 finished CTA #1 (2257,0), 2 CTAs running
GPGPU-Sim uArch: Shader 45 finished CTA #2 (2257,0), 1 CTAs running
GPGPU-Sim uArch: Shader 46 finished CTA #0 (2257,0), 3 CTAs running
GPGPU-Sim uArch: Shader 44 finished CTA #3 (2258,0), 0 CTAs running
GPGPU-Sim uArch: Shader 44 empty (release kernel 1 '_Z6KernelP4NodePiPbS2_S1_S2_i').
GPGPU-Sim uArch: Shader 46 finished CTA #1 (2263,0), 2 CTAs running
GPGPU-Sim uArch: Shader 46 finished CTA #2 (2263,0), 1 CTAs running
GPGPU-Sim uArch: Shader 45 finished CTA #3 (2264,0), 0 CTAs running
GPGPU-Sim uArch: Shader 45 empty (release kernel 1 '_Z6KernelP4NodePiPbS2_S1_S2_i').
GPGPU-Sim uArch: Shader 47 finished CTA #1 (2267,0), 2 CTAs running
GPGPU-Sim uArch: Shader 47 finished CTA #2 (2269,0), 1 CTAs running
GPGPU-Sim uArch: Shader 46 finished CTA #3 (2270,0), 0 CTAs running
GPGPU-Sim uArch: Shader 46 empty (release kernel 1 '_Z6KernelP4NodePiPbS2_S1_S2_i').
GPGPU-Sim uArch: Shader 48 finished CTA #0 (2273,0), 3 CTAs running
GPGPU-Sim uArch: Shader 48 finished CTA #1 (2273,0), 2 CTAs running
GPGPU-Sim uArch: Shader 48 finished CTA #2 (2275,0), 1 CTAs running
GPGPU-Sim uArch: Shader 47 finished CTA #3 (2276,0), 0 CTAs running
GPGPU-Sim uArch: Shader 47 empty (release kernel 1 '_Z6KernelP4NodePiPbS2_S1_S2_i').
GPGPU-Sim uArch: Shader 49 finished CTA #0 (2280,0), 3 CTAs running
GPGPU-Sim uArch: Shader 49 finished CTA #1 (2280,0), 2 CTAs running
GPGPU-Sim uArch: Shader 49 finished CTA #2 (2280,0), 1 CTAs running
GPGPU-Sim uArch: Shader 48 finished CTA #3 (2282,0), 0 CTAs running
GPGPU-Sim uArch: Shader 48 empty (release kernel 1 '_Z6KernelP4NodePiPbS2_S1_S2_i').
GPGPU-Sim uArch: Shader 50 finished CTA #0 (2287,0), 3 CTAs running
GPGPU-Sim uArch: Shader 50 finished CTA #1 (2287,0), 2 CTAs running
GPGPU-Sim uArch: Shader 50 finished CTA #2 (2287,0), 1 CTAs running
GPGPU-Sim uArch: Shader 49 finished CTA #3 (2288,0), 0 CTAs running
GPGPU-Sim uArch: Shader 49 empty (release kernel 1 '_Z6KernelP4NodePiPbS2_S1_S2_i').
GPGPU-Sim uArch: Shader 51 finished CTA #0 (2290,0), 3 CTAs running
GPGPU-Sim uArch: Shader 51 finished CTA #1 (2290,0), 2 CTAs running
GPGPU-Sim uArch: Shader 53 finished CTA #0 (2291,0), 2 CTAs running
GPGPU-Sim uArch: Shader 53 finished CTA #1 (2291,0), 1 CTAs running
GPGPU-Sim uArch: Shader 51 finished CTA #2 (2293,0), 1 CTAs running
GPGPU-Sim uArch: Shader 50 finished CTA #3 (2294,0), 0 CTAs running
GPGPU-Sim uArch: Shader 50 empty (release kernel 1 '_Z6KernelP4NodePiPbS2_S1_S2_i').
GPGPU-Sim uArch: Shader 54 finished CTA #0 (2296,0), 2 CTAs running
GPGPU-Sim uArch: Shader 54 finished CTA #1 (2296,0), 1 CTAs running
GPGPU-Sim uArch: Shader 53 finished CTA #2 (2298,0), 0 CTAs running
GPGPU-Sim uArch: Shader 53 empty (release kernel 1 '_Z6KernelP4NodePiPbS2_S1_S2_i').
GPGPU-Sim uArch: Shader 55 finished CTA #0 (2298,0), 2 CTAs running
GPGPU-Sim uArch: Shader 51 finished CTA #3 (2300,0), 0 CTAs running
GPGPU-Sim uArch: Shader 51 empty (release kernel 1 '_Z6KernelP4NodePiPbS2_S1_S2_i').
GPGPU-Sim uArch: Shader 54 finished CTA #2 (2304,0), 0 CTAs running
GPGPU-Sim uArch: Shader 54 empty (release kernel 1 '_Z6KernelP4NodePiPbS2_S1_S2_i').
GPGPU-Sim uArch: Shader 55 finished CTA #1 (2306,0), 1 CTAs running
GPGPU-Sim uArch: Shader 56 finished CTA #0 (2309,0), 2 CTAs running
GPGPU-Sim uArch: Shader 55 finished CTA #2 (2310,0), 0 CTAs running
GPGPU-Sim uArch: Shader 55 empty (release kernel 1 '_Z6KernelP4NodePiPbS2_S1_S2_i').
GPGPU-Sim uArch: Shader 56 finished CTA #1 (2310,0), 1 CTAs running
GPGPU-Sim uArch: Shader 57 finished CTA #0 (2313,0), 2 CTAs running
GPGPU-Sim uArch: Shader 56 finished CTA #2 (2316,0), 0 CTAs running
GPGPU-Sim uArch: Shader 56 empty (release kernel 1 '_Z6KernelP4NodePiPbS2_S1_S2_i').
GPGPU-Sim uArch: Shader 57 finished CTA #1 (2316,0), 1 CTAs running
GPGPU-Sim uArch: Shader 58 finished CTA #0 (2319,0), 2 CTAs running
GPGPU-Sim uArch: Shader 58 finished CTA #1 (2321,0), 1 CTAs running
GPGPU-Sim uArch: Shader 57 finished CTA #2 (2322,0), 0 CTAs running
GPGPU-Sim uArch: Shader 57 empty (release kernel 1 '_Z6KernelP4NodePiPbS2_S1_S2_i').
GPGPU-Sim uArch: Shader 59 finished CTA #0 (2326,0), 2 CTAs running
GPGPU-Sim uArch: Shader 59 finished CTA #1 (2326,0), 1 CTAs running
GPGPU-Sim uArch: Shader 58 finished CTA #2 (2328,0), 0 CTAs running
GPGPU-Sim uArch: Shader 58 empty (release kernel 1 '_Z6KernelP4NodePiPbS2_S1_S2_i').
GPGPU-Sim uArch: Shader 60 finished CTA #0 (2333,0), 2 CTAs running
GPGPU-Sim uArch: Shader 59 finished CTA #2 (2334,0), 0 CTAs running
GPGPU-Sim uArch: Shader 59 empty (release kernel 1 '_Z6KernelP4NodePiPbS2_S1_S2_i').
GPGPU-Sim uArch: Shader 60 finished CTA #1 (2335,0), 1 CTAs running
GPGPU-Sim uArch: Shader 61 finished CTA #0 (2336,0), 2 CTAs running
GPGPU-Sim uArch: Shader 61 finished CTA #1 (2339,0), 1 CTAs running
GPGPU-Sim uArch: Shader 60 finished CTA #2 (2340,0), 0 CTAs running
GPGPU-Sim uArch: Shader 60 empty (release kernel 1 '_Z6KernelP4NodePiPbS2_S1_S2_i').
GPGPU-Sim uArch: Shader 52 finished CTA #0 (2341,0), 3 CTAs running
GPGPU-Sim uArch: Shader 61 finished CTA #2 (2346,0), 0 CTAs running
GPGPU-Sim uArch: Shader 61 empty (release kernel 1 '_Z6KernelP4NodePiPbS2_S1_S2_i').
GPGPU-Sim uArch: Shader 63 finished CTA #0 (2348,0), 2 CTAs running
GPGPU-Sim uArch: Shader 62 finished CTA #0 (2349,0), 2 CTAs running
GPGPU-Sim uArch: Shader 52 finished CTA #2 (2351,0), 2 CTAs running
GPGPU-Sim uArch: Shader 62 finished CTA #1 (2351,0), 1 CTAs running
GPGPU-Sim uArch: Shader 52 finished CTA #1 (2353,0), 1 CTAs running
GPGPU-Sim uArch: Shader 63 finished CTA #2 (2357,0), 1 CTAs running
GPGPU-Sim uArch: Shader 62 finished CTA #2 (2358,0), 0 CTAs running
GPGPU-Sim uArch: Shader 62 empty (release kernel 1 '_Z6KernelP4NodePiPbS2_S1_S2_i').
GPGPU-Sim uArch: Shader 52 finished CTA #3 (2360,0), 0 CTAs running
GPGPU-Sim uArch: Shader 52 empty (release kernel 1 '_Z6KernelP4NodePiPbS2_S1_S2_i').
GPGPU-Sim uArch: Shader 64 finished CTA #0 (2363,0), 2 CTAs running
GPGPU-Sim uArch: Shader 64 finished CTA #1 (2363,0), 1 CTAs running
GPGPU-Sim uArch: Shader 63 finished CTA #1 (2364,0), 0 CTAs running
GPGPU-Sim uArch: Shader 63 empty (release kernel 1 '_Z6KernelP4NodePiPbS2_S1_S2_i').
GPGPU-Sim uArch: Shader 65 finished CTA #0 (2369,0), 2 CTAs running
GPGPU-Sim uArch: Shader 65 finished CTA #1 (2369,0), 1 CTAs running
GPGPU-Sim uArch: Shader 64 finished CTA #2 (2370,0), 0 CTAs running
GPGPU-Sim uArch: Shader 64 empty (release kernel 1 '_Z6KernelP4NodePiPbS2_S1_S2_i').
GPGPU-Sim uArch: Shader 66 finished CTA #0 (2375,0), 2 CTAs running
GPGPU-Sim uArch: Shader 66 finished CTA #1 (2375,0), 1 CTAs running
GPGPU-Sim uArch: Shader 67 finished CTA #1 (2375,0), 2 CTAs running
GPGPU-Sim uArch: Shader 65 finished CTA #2 (2376,0), 0 CTAs running
GPGPU-Sim uArch: Shader 65 empty (release kernel 1 '_Z6KernelP4NodePiPbS2_S1_S2_i').
GPGPU-Sim uArch: Shader 67 finished CTA #2 (2381,0), 1 CTAs running
GPGPU-Sim uArch: Shader 66 finished CTA #2 (2382,0), 0 CTAs running
GPGPU-Sim uArch: Shader 66 empty (release kernel 1 '_Z6KernelP4NodePiPbS2_S1_S2_i').
GPGPU-Sim uArch: Shader 67 finished CTA #0 (2388,0), 0 CTAs running
GPGPU-Sim uArch: Shader 67 empty (release kernel 1 '_Z6KernelP4NodePiPbS2_S1_S2_i').
GPGPU-Sim uArch: cycles simulated: 2500  inst.: 1769453 (ipc=707.8) sim_rate=176945 (inst/sec) elapsed = 0:0:00:10 / Sat Apr 24 01:54:26 2021
GPGPU-Sim uArch: Shader 1 finished CTA #0 (6650,0), 0 CTAs running
GPGPU-Sim uArch: Shader 1 empty (release kernel 1 '_Z6KernelP4NodePiPbS2_S1_S2_i').
GPGPU-Sim uArch: GPU detected kernel '_Z6KernelP4NodePiPbS2_S1_S2_i' finished on shader 1.
kernel_name = _Z6KernelP4NodePiPbS2_S1_S2_i 
kernel_launch_uid = 1 
gpu_sim_cycle = 6651
gpu_sim_insn = 1769667
gpu_ipc =     266.0753
gpu_tot_sim_cycle = 6651
gpu_tot_sim_insn = 1769667
gpu_tot_ipc =     266.0753
gpu_tot_issued_cta = 0
gpu_stall_dramfull = 1444
gpu_stall_icnt2sh    = 1378
gpu_total_sim_rate=176966

========= Core cache stats =========
L1I_cache:
	L1I_total_cache_accesses = 36974
	L1I_total_cache_misses = 6145
	L1I_total_cache_miss_rate = 0.1662
	L1I_total_cache_pending_hits = 0
	L1I_total_cache_reservation_fails = 0
L1D_cache:
	L1D_cache_core[0]: Access = 24, Miss = 6, Miss_rate = 0.250, Pending_hits = 18, Reservation_fails = 0
	L1D_cache_core[1]: Access = 100, Miss = 44, Miss_rate = 0.440, Pending_hits = 25, Reservation_fails = 0
	L1D_cache_core[2]: Access = 32, Miss = 8, Miss_rate = 0.250, Pending_hits = 24, Reservation_fails = 0
	L1D_cache_core[3]: Access = 32, Miss = 8, Miss_rate = 0.250, Pending_hits = 24, Reservation_fails = 0
	L1D_cache_core[4]: Access = 32, Miss = 8, Miss_rate = 0.250, Pending_hits = 24, Reservation_fails = 0
	L1D_cache_core[5]: Access = 32, Miss = 8, Miss_rate = 0.250, Pending_hits = 24, Reservation_fails = 0
	L1D_cache_core[6]: Access = 32, Miss = 8, Miss_rate = 0.250, Pending_hits = 24, Reservation_fails = 0
	L1D_cache_core[7]: Access = 32, Miss = 8, Miss_rate = 0.250, Pending_hits = 24, Reservation_fails = 0
	L1D_cache_core[8]: Access = 32, Miss = 8, Miss_rate = 0.250, Pending_hits = 24, Reservation_fails = 0
	L1D_cache_core[9]: Access = 32, Miss = 8, Miss_rate = 0.250, Pending_hits = 24, Reservation_fails = 0
	L1D_cache_core[10]: Access = 32, Miss = 8, Miss_rate = 0.250, Pending_hits = 24, Reservation_fails = 0
	L1D_cache_core[11]: Access = 32, Miss = 8, Miss_rate = 0.250, Pending_hits = 24, Reservation_fails = 0
	L1D_cache_core[12]: Access = 32, Miss = 8, Miss_rate = 0.250, Pending_hits = 24, Reservation_fails = 0
	L1D_cache_core[13]: Access = 32, Miss = 8, Miss_rate = 0.250, Pending_hits = 24, Reservation_fails = 0
	L1D_cache_core[14]: Access = 32, Miss = 8, Miss_rate = 0.250, Pending_hits = 24, Reservation_fails = 0
	L1D_cache_core[15]: Access = 32, Miss = 8, Miss_rate = 0.250, Pending_hits = 24, Reservation_fails = 0
	L1D_cache_core[16]: Access = 32, Miss = 8, Miss_rate = 0.250, Pending_hits = 24, Reservation_fails = 0
	L1D_cache_core[17]: Access = 32, Miss = 8, Miss_rate = 0.250, Pending_hits = 24, Reservation_fails = 0
	L1D_cache_core[18]: Access = 32, Miss = 8, Miss_rate = 0.250, Pending_hits = 24, Reservation_fails = 0
	L1D_cache_core[19]: Access = 32, Miss = 8, Miss_rate = 0.250, Pending_hits = 24, Reservation_fails = 0
	L1D_cache_core[20]: Access = 32, Miss = 8, Miss_rate = 0.250, Pending_hits = 24, Reservation_fails = 0
	L1D_cache_core[21]: Access = 32, Miss = 8, Miss_rate = 0.250, Pending_hits = 24, Reservation_fails = 0
	L1D_cache_core[22]: Access = 32, Miss = 8, Miss_rate = 0.250, Pending_hits = 24, Reservation_fails = 0
	L1D_cache_core[23]: Access = 32, Miss = 8, Miss_rate = 0.250, Pending_hits = 24, Reservation_fails = 0
	L1D_cache_core[24]: Access = 32, Miss = 8, Miss_rate = 0.250, Pending_hits = 24, Reservation_fails = 0
	L1D_cache_core[25]: Access = 32, Miss = 8, Miss_rate = 0.250, Pending_hits = 24, Reservation_fails = 0
	L1D_cache_core[26]: Access = 32, Miss = 8, Miss_rate = 0.250, Pending_hits = 24, Reservation_fails = 0
	L1D_cache_core[27]: Access = 32, Miss = 8, Miss_rate = 0.250, Pending_hits = 24, Reservation_fails = 0
	L1D_cache_core[28]: Access = 32, Miss = 8, Miss_rate = 0.250, Pending_hits = 24, Reservation_fails = 0
	L1D_cache_core[29]: Access = 32, Miss = 8, Miss_rate = 0.250, Pending_hits = 24, Reservation_fails = 0
	L1D_cache_core[30]: Access = 32, Miss = 8, Miss_rate = 0.250, Pending_hits = 24, Reservation_fails = 0
	L1D_cache_core[31]: Access = 32, Miss = 8, Miss_rate = 0.250, Pending_hits = 24, Reservation_fails = 0
	L1D_cache_core[32]: Access = 32, Miss = 8, Miss_rate = 0.250, Pending_hits = 24, Reservation_fails = 0
	L1D_cache_core[33]: Access = 32, Miss = 8, Miss_rate = 0.250, Pending_hits = 24, Reservation_fails = 0
	L1D_cache_core[34]: Access = 32, Miss = 8, Miss_rate = 0.250, Pending_hits = 24, Reservation_fails = 0
	L1D_cache_core[35]: Access = 32, Miss = 8, Miss_rate = 0.250, Pending_hits = 24, Reservation_fails = 0
	L1D_cache_core[36]: Access = 32, Miss = 8, Miss_rate = 0.250, Pending_hits = 24, Reservation_fails = 0
	L1D_cache_core[37]: Access = 32, Miss = 8, Miss_rate = 0.250, Pending_hits = 24, Reservation_fails = 0
	L1D_cache_core[38]: Access = 32, Miss = 8, Miss_rate = 0.250, Pending_hits = 24, Reservation_fails = 0
	L1D_cache_core[39]: Access = 32, Miss = 8, Miss_rate = 0.250, Pending_hits = 24, Reservation_fails = 0
	L1D_cache_core[40]: Access = 32, Miss = 8, Miss_rate = 0.250, Pending_hits = 24, Reservation_fails = 0
	L1D_cache_core[41]: Access = 32, Miss = 8, Miss_rate = 0.250, Pending_hits = 24, Reservation_fails = 0
	L1D_cache_core[42]: Access = 32, Miss = 8, Miss_rate = 0.250, Pending_hits = 24, Reservation_fails = 0
	L1D_cache_core[43]: Access = 32, Miss = 8, Miss_rate = 0.250, Pending_hits = 24, Reservation_fails = 0
	L1D_cache_core[44]: Access = 32, Miss = 8, Miss_rate = 0.250, Pending_hits = 24, Reservation_fails = 0
	L1D_cache_core[45]: Access = 32, Miss = 8, Miss_rate = 0.250, Pending_hits = 24, Reservation_fails = 0
	L1D_cache_core[46]: Access = 32, Miss = 8, Miss_rate = 0.250, Pending_hits = 24, Reservation_fails = 0
	L1D_cache_core[47]: Access = 32, Miss = 8, Miss_rate = 0.250, Pending_hits = 24, Reservation_fails = 0
	L1D_cache_core[48]: Access = 32, Miss = 8, Miss_rate = 0.250, Pending_hits = 24, Reservation_fails = 0
	L1D_cache_core[49]: Access = 32, Miss = 8, Miss_rate = 0.250, Pending_hits = 24, Reservation_fails = 0
	L1D_cache_core[50]: Access = 32, Miss = 8, Miss_rate = 0.250, Pending_hits = 24, Reservation_fails = 0
	L1D_cache_core[51]: Access = 32, Miss = 8, Miss_rate = 0.250, Pending_hits = 24, Reservation_fails = 0
	L1D_cache_core[52]: Access = 32, Miss = 8, Miss_rate = 0.250, Pending_hits = 24, Reservation_fails = 0
	L1D_cache_core[53]: Access = 24, Miss = 6, Miss_rate = 0.250, Pending_hits = 18, Reservation_fails = 0
	L1D_cache_core[54]: Access = 24, Miss = 6, Miss_rate = 0.250, Pending_hits = 18, Reservation_fails = 0
	L1D_cache_core[55]: Access = 24, Miss = 6, Miss_rate = 0.250, Pending_hits = 18, Reservation_fails = 0
	L1D_cache_core[56]: Access = 24, Miss = 6, Miss_rate = 0.250, Pending_hits = 18, Reservation_fails = 0
	L1D_cache_core[57]: Access = 24, Miss = 6, Miss_rate = 0.250, Pending_hits = 18, Reservation_fails = 0
	L1D_cache_core[58]: Access = 24, Miss = 6, Miss_rate = 0.250, Pending_hits = 18, Reservation_fails = 0
	L1D_cache_core[59]: Access = 24, Miss = 6, Miss_rate = 0.250, Pending_hits = 18, Reservation_fails = 0
	L1D_cache_core[60]: Access = 24, Miss = 6, Miss_rate = 0.250, Pending_hits = 18, Reservation_fails = 0
	L1D_cache_core[61]: Access = 24, Miss = 6, Miss_rate = 0.250, Pending_hits = 18, Reservation_fails = 0
	L1D_cache_core[62]: Access = 24, Miss = 6, Miss_rate = 0.250, Pending_hits = 18, Reservation_fails = 0
	L1D_cache_core[63]: Access = 24, Miss = 6, Miss_rate = 0.250, Pending_hits = 18, Reservation_fails = 0
	L1D_cache_core[64]: Access = 24, Miss = 6, Miss_rate = 0.250, Pending_hits = 18, Reservation_fails = 0
	L1D_cache_core[65]: Access = 24, Miss = 6, Miss_rate = 0.250, Pending_hits = 18, Reservation_fails = 0
	L1D_cache_core[66]: Access = 24, Miss = 6, Miss_rate = 0.250, Pending_hits = 18, Reservation_fails = 0
	L1D_cache_core[67]: Access = 24, Miss = 6, Miss_rate = 0.250, Pending_hits = 18, Reservation_fails = 0
	L1D_total_cache_accesses = 2116
	L1D_total_cache_misses = 548
	L1D_total_cache_miss_rate = 0.2590
	L1D_total_cache_pending_hits = 1537
	L1D_total_cache_reservation_fails = 0
	L1D_cache_data_port_util = 0.000
	L1D_cache_fill_port_util = 0.003
L1C_cache:
	L1C_total_cache_accesses = 14336
	L1C_total_cache_misses = 2176
	L1C_total_cache_miss_rate = 0.1518
	L1C_total_cache_pending_hits = 0
	L1C_total_cache_reservation_fails = 30668
L1T_cache:
	L1T_total_cache_accesses = 0
	L1T_total_cache_misses = 0
	L1T_total_cache_pending_hits = 0
	L1T_total_cache_reservation_fails = 0

Total_core_cache_stats:
	Total_core_cache_stats_breakdown[GLOBAL_ACC_R][HIT] = 30
	Total_core_cache_stats_breakdown[GLOBAL_ACC_R][HIT_RESERVED] = 1537
	Total_core_cache_stats_breakdown[GLOBAL_ACC_R][MISS] = 523
	Total_core_cache_stats_breakdown[CONST_ACC_R][HIT] = 12160
	Total_core_cache_stats_breakdown[CONST_ACC_R][MISS] = 2176
	Total_core_cache_stats_breakdown[CONST_ACC_R][RESERVATION_FAIL] = 30668
	Total_core_cache_stats_breakdown[GLOBAL_ACC_W][HIT] = 1
	Total_core_cache_stats_breakdown[GLOBAL_ACC_W][MISS] = 25
	Total_core_cache_stats_breakdown[INST_ACC_R][HIT] = 30829
	Total_core_cache_stats_breakdown[INST_ACC_R][MISS] = 6145
Shader 0 warp_id issue ditsribution:
warp_id:
0, 1, 2, 3, 4, 5, 6, 7, 8, 9, 10, 11, 12, 13, 14, 15, 16, 17, 18, 19, 20, 21, 22, 23, 
distro:
28, 28, 28, 28, 28, 28, 28, 28, 28, 28, 28, 28, 28, 28, 28, 28, 28, 28, 28, 28, 28, 28, 28, 28, 
gpgpu_n_tot_thrd_icount = 1841600
gpgpu_n_tot_w_icount = 57550
gpgpu_n_stall_shd_mem = 30668
gpgpu_n_mem_read_local = 0
gpgpu_n_mem_write_local = 0
gpgpu_n_mem_read_global = 523
gpgpu_n_mem_write_global = 26
gpgpu_n_mem_texture = 0
gpgpu_n_mem_const = 68
gpgpu_n_load_insn  = 65578
gpgpu_n_store_insn = 26
gpgpu_n_shmem_insn = 0
gpgpu_n_tex_insn = 0
gpgpu_n_const_mem_insn = 0
gpgpu_n_param_mem_insn = 458752
gpgpu_n_shmem_bkconflict = 0
gpgpu_n_cache_bkconflict = 0
gpgpu_n_intrawarp_mshr_merge = 0
gpgpu_n_cmem_portconflict = 30668
gpgpu_stall_shd_mem[c_mem][bk_conf] = 30668
gpgpu_stall_shd_mem[c_mem][mshr_rc] = 0
gpgpu_stall_shd_mem[c_mem][icnt_rc] = 0
gpgpu_stall_shd_mem[c_mem][data_port_stall] = 0
gpgpu_stall_shd_mem[t_mem][mshr_rc] = 0
gpgpu_stall_shd_mem[t_mem][icnt_rc] = 0
gpgpu_stall_shd_mem[t_mem][data_port_stall] = 0
gpgpu_stall_shd_mem[s_mem][bk_conf] = 0
gpgpu_stall_shd_mem[gl_mem][bk_conf] = 0
gpgpu_stall_shd_mem[gl_mem][coal_stall] = 0
gpgpu_stall_shd_mem[gl_mem][data_port_stall] = 0
gpgpu_stall_shd_mem[g_mem_ld][mshr_rc] = 0
gpgpu_stall_shd_mem[g_mem_ld][icnt_rc] = 0
gpgpu_stall_shd_mem[g_mem_ld][wb_icnt_rc] = 0
gpgpu_stall_shd_mem[g_mem_ld][wb_rsrv_fail] = 0
gpgpu_stall_shd_mem[g_mem_st][mshr_rc] = 0
gpgpu_stall_shd_mem[g_mem_st][icnt_rc] = 0
gpgpu_stall_shd_mem[g_mem_st][wb_icnt_rc] = 0
gpgpu_stall_shd_mem[g_mem_st][wb_rsrv_fail] = 0
gpgpu_stall_shd_mem[l_mem_ld][mshr_rc] = 0
gpgpu_stall_shd_mem[l_mem_ld][icnt_rc] = 0
gpgpu_stall_shd_mem[l_mem_ld][wb_icnt_rc] = 0
gpgpu_stall_shd_mem[l_mem_ld][wb_rsrv_fail] = 0
gpgpu_stall_shd_mem[l_mem_st][mshr_rc] = 0
gpgpu_stall_shd_mem[l_mem_st][icnt_rc] = 0
gpgpu_stall_shd_mem[l_mem_ld][wb_icnt_rc] = 0
gpgpu_stall_shd_mem[l_mem_ld][wb_rsrv_fail] = 0
gpu_reg_bank_conflict_stalls = 0
Warp Occupancy Distribution:
Stall:67083	W0_Idle:140144	W0_Scoreboard:40631	W1:206	W2:0	W3:0	W4:0	W5:0	W6:0	W7:0	W8:0	W9:0	W10:0	W11:0	W12:0	W13:0	W14:0	W15:0	W16:0	W17:0	W18:0	W19:0	W20:0	W21:0	W22:0	W23:0	W24:0	W25:0	W26:0	W27:0	W28:0	W29:0	W30:0	W31:0	W32:57344
traffic_breakdown_coretomem[CONST_ACC_R] = 544 {8:68,}
traffic_breakdown_coretomem[GLOBAL_ACC_R] = 4184 {8:523,}
traffic_breakdown_coretomem[GLOBAL_ACC_W] = 1040 {40:26,}
traffic_breakdown_coretomem[INST_ACC_R] = 1648 {8:206,}
traffic_breakdown_memtocore[CONST_ACC_R] = 4896 {72:68,}
traffic_breakdown_memtocore[GLOBAL_ACC_R] = 71128 {136:523,}
traffic_breakdown_memtocore[GLOBAL_ACC_W] = 208 {8:26,}
traffic_breakdown_memtocore[INST_ACC_R] = 28016 {136:206,}
maxmrqlatency = 49 
maxdqlatency = 0 
maxmflatency = 554 
averagemflatency = 296 
max_icnt2mem_latency = 285 
max_icnt2sh_latency = 6650 
mrq_lat_table:169 	50 	94 	175 	55 	6 	0 	0 	0 	0 	0 	0 	0 	0 	0 	0 	0 	0 	0 	0 	0 	0 	0 	0 	0 	0 	0 	0 	0 	0 	0 	0 	
dq_lat_table:0 	0 	0 	0 	0 	0 	0 	0 	0 	0 	0 	0 	0 	0 	0 	0 	0 	0 	0 	0 	0 	0 	0 	0 	0 	0 	0 	0 	0 	0 	0 	0 	
mf_lat_table:0 	0 	0 	0 	0 	0 	0 	26 	571 	20 	0 	0 	0 	0 	0 	0 	0 	0 	0 	0 	0 	0 	0 	0 	0 	0 	0 	0 	0 	0 	0 	0 	
icnt2mem_lat_table:0 	0 	0 	609 	25 	50 	81 	52 	6 	0 	0 	0 	0 	0 	0 	0 	0 	0 	0 	0 	0 	0 	0 	0 	
icnt2sh_lat_table:0 	0 	0 	195 	396 	0 	0 	0 	0 	0 	1 	4 	21 	0 	0 	0 	0 	0 	0 	0 	0 	0 	0 	0 	
mf_lat_pw_table:0 	0 	0 	0 	0 	0 	0 	6 	6 	0 	0 	0 	0 	0 	0 	0 	0 	0 	0 	0 	0 	0 	0 	0 	0 	0 	0 	0 	0 	0 	0 	0 	
maximum concurrent accesses to same row:
dram[0]:        18         0         0         0         0         0         0         0         0         0         0         0         0         0         0         0 
dram[1]:        16         0         0         0         0         0         0         0         0         0         0         0         0         0         0         0 
dram[2]:        10         0         0         0         0         0         0         0         0         0         0         0         0         0         0         0 
dram[3]:         0         0         0         0         0         0         0         0         0         0         0         0         0         0         0         0 
dram[4]:         0         0         0         0         0         0         0         0         0         0         0         0         0         0         0         0 
dram[5]:         0         0         0         0         0         0         0         0         0         0         0         0         0         0         0         0 
dram[6]:         0         0         0         0         0         0         0         0         0         0         0         0         0         0         0         0 
dram[7]:         0         0         0         0         0         0         0         0         0         0         0         0         0         0         0         0 
dram[8]:         0         0         0         0         0         0         0         0         0         0         0         0         0         0         0         0 
dram[9]:         0         0         0         0         0         0         0         0         0         0         0         0         0         0         0         0 
dram[10]:         0         0         0         0         0         0         0         0         0         0         0         0         0         0         0         0 
dram[11]:         0         0         0         0         0         0         0         0         0         0         0         0         0         0         0         0 
dram[12]:         0         0         0         0         0         0         0         0         0         0         0         0         0         0         0         0 
[...]
dram[10]:       2950      2877      2464      2398      2519      2771      2465      2115      1977      2499      2633      2028      2263      2176      2173      1877
dram[11]:       2626      3029      2265      2407      2197      2407      2181      2198      2052      2437      2596      2099      2234      2179      2142      1899
dram[12]:       2704      2843      2507      2169      2439      2358      2351      2521      2449      1917      1936      1856      2058      2018      2784      2265
dram[13]:       2897      2658      2386      2177      3241      2198      2427      2132      2445      1970      2029      2117      2060      1804      2104      2702
dram[14]:       2599      3018      2425      2603      3231      2415      2041      1949      2469      2548      2804      2260      2689      2437      2123      2616
dram[15]:       2728      3609      2180      2648      3076      2542      2090      2277      2545      2578      2683      2327      2789      2589      2135      2570
Memory Partition 0: 
Cache L2_bank_000:
MSHR contents

Cache L2_bank_001:
MSHR contents

In Dram Latency Queue (total = 0): 
DRAM[0]: 16 bks, busW=4 BL=8 CL=12, tRRD=2 tCCD=6, tRCD=12 tRAS=28 tRP=12 tRC=40
n_cmd=564400 n_nop=558827 n_act=476 n_pre=460 n_req=2395 n_rd=4382 n_write=255 bw_util=0.01643
n_activity=35169 dram_eff=0.2637
bk0: 362a 562410i bk1: 356a 562475i bk2: 250a 562567i bk3: 256a 562473i bk4: 336a 561305i bk5: 336a 561117i bk6: 186a 562994i bk7: 190a 562582i bk8: 308a 562409i bk9: 306a 562188i bk10: 224a 562843i bk11: 224a 562386i bk12: 304a 562351i bk13: 282a 562336i bk14: 236a 562605i bk15: 226a 562607i 
dram_util_bins: 0 0 0 0 0 0 0 0 0 0
dram_eff_bins: 0 0 0 0 0 0 0 0 0 0
mrqq: max=16 avg=0.0417877
Memory Partition 1: 
Cache L2_bank_002:
MSHR contents

Cache L2_bank_003:
MSHR contents

In Dram Latency Queue (total = 0): 
DRAM[1]: 16 bks, busW=4 BL=8 CL=12, tRRD=2 tCCD=6, tRCD=12 tRAS=28 tRP=12 tRC=40
n_cmd=564400 n_nop=559258 n_act=435 n_pre=419 n_req=2214 n_rd=4100 n_write=188 bw_util=0.01519
n_activity=32692 dram_eff=0.2623
bk0: 268a 563152i bk1: 278a 563084i bk2: 248a 562635i bk3: 248a 562896i bk4: 354a 561565i bk5: 336a 561496i bk6: 234a 563038i bk7: 222a 562971i bk8: 278a 562912i bk9: 268a 562812i bk10: 204a 563090i bk11: 208a 562937i bk12: 274a 562802i bk13: 264a 562783i bk14: 196a 563045i bk15: 220a 562808i 
dram_util_bins: 0 0 0 0 0 0 0 0 0 0
dram_eff_bins: 0 0 0 0 0 0 0 0 0 0
mrqq: max=16 avg=0.0187633
Memory Partition 2: 
Cache L2_bank_004:
MSHR contents

Cache L2_bank_005:
MSHR contents

In Dram Latency Queue (total = 0): 
DRAM[2]: 16 bks, busW=4 BL=8 CL=12, tRRD=2 tCCD=6, tRCD=12 tRAS=28 tRP=12 tRC=40
n_cmd=564400 n_nop=558841 n_act=476 n_pre=460 n_req=2388 n_rd=4356 n_write=267 bw_util=0.01638
n_activity=34367 dram_eff=0.269
bk0: 362a 562574i bk1: 350a 562374i bk2: 252a 562620i bk3: 268a 562608i bk4: 352a 560648i bk5: 348a 560812i bk6: 182a 563016i bk7: 202a 563095i bk8: 326a 562455i bk9: 292a 562556i bk10: 212a 562964i bk11: 210a 562859i bk12: 284a 562449i bk13: 298a 562385i bk14: 216a 562527i bk15: 202a 562766i 
dram_util_bins: 0 0 0 0 0 0 0 0 0 0
dram_eff_bins: 0 0 0 0 0 0 0 0 0 0
mrqq: max=14 avg=0.0321793
Memory Partition 3: 
Cache L2_bank_006:
MSHR contents

Cache L2_bank_007:
MSHR contents

In Dram Latency Queue (total = 0): 
DRAM[3]: 16 bks, busW=4 BL=8 CL=12, tRRD=2 tCCD=6, tRCD=12 tRAS=28 tRP=12 tRC=40
n_cmd=564400 n_nop=559009 n_act=467 n_pre=451 n_req=2306 n_rd=4254 n_write=219 bw_util=0.01585
n_activity=33363 dram_eff=0.2681
bk0: 280a 563129i bk1: 290a 562789i bk2: 258a 562459i bk3: 242a 562716i bk4: 372a 561095i bk5: 368a 560878i bk6: 224a 562932i bk7: 222a 562761i bk8: 282a 562712i bk9: 272a 562606i bk10: 212a 563230i bk11: 222a 562815i bk12: 268a 562825i bk13: 284a 562572i bk14: 232a 562655i bk15: 226a 562222i 
dram_util_bins: 0 0 0 0 0 0 0 0 0 0
dram_eff_bins: 0 0 0 0 0 0 0 0 0 0
mrqq: max=16 avg=0.0293338
Memory Partition 4: 
Cache L2_bank_008:
MSHR contents

Cache L2_bank_009:
MSHR contents

In Dram Latency Queue (total = 0): 
DRAM[4]: 16 bks, busW=4 BL=8 CL=12, tRRD=2 tCCD=6, tRCD=12 tRAS=28 tRP=12 tRC=40
n_cmd=564400 n_nop=558966 n_act=453 n_pre=437 n_req=2346 n_rd=4302 n_write=242 bw_util=0.0161
n_activity=32746 dram_eff=0.2775
bk0: 328a 562858i bk1: 332a 562582i bk2: 246a 562544i bk3: 242a 562526i bk4: 360a 560722i bk5: 366a 560905i bk6: 192a 563285i bk7: 214a 563118i bk8: 290a 562609i bk9: 288a 562416i bk10: 222a 562820i bk11: 208a 562826i bk12: 298a 562484i bk13: 280a 562692i bk14: 218a 562838i bk15: 218a 562481i 
dram_util_bins: 0 0 0 0 0 0 0 0 0 0
dram_eff_bins: 0 0 0 0 0 0 0 0 0 0
mrqq: max=16 avg=0.0293019
Memory Partition 5: 
Cache L2_bank_010:
MSHR contents

Cache L2_bank_011:
MSHR contents

In Dram Latency Queue (total = 0): 
DRAM[5]: 16 bks, busW=4 BL=8 CL=12, tRRD=2 tCCD=6, tRCD=12 tRAS=28 tRP=12 tRC=40
n_cmd=564400 n_nop=559159 n_act=447 n_pre=431 n_req=2250 n_rd=4152 n_write=211 bw_util=0.01546
n_activity=33275 dram_eff=0.2622
bk0: 306a 562959i bk1: 266a 563042i bk2: 258a 562143i bk3: 276a 562406i bk4: 364a 561108i bk5: 360a 561201i bk6: 230a 563139i bk7: 230a 562893i bk8: 280a 562778i bk9: 264a 562613i bk10: 186a 562715i bk11: 204a 562755i bk12: 278a 562888i bk13: 252a 562884i bk14: 198a 562882i bk15: 200a 562575i 
dram_util_bins: 0 0 0 0 0 0 0 0 0 0
dram_eff_bins: 0 0 0 0 0 0 0 0 0 0
mrqq: max=16 avg=0.0249486
Memory Partition 6: 
Cache L2_bank_012:
MSHR contents

Cache L2_bank_013:
MSHR contents

In Dram Latency Queue (total = 0): 
DRAM[6]: 16 bks, busW=4 BL=8 CL=12, tRRD=2 tCCD=6, tRCD=12 tRAS=28 tRP=12 tRC=40
n_cmd=564400 n_nop=559052 n_act=432 n_pre=416 n_req=2328 n_rd=4240 n_write=260 bw_util=0.01595
n_activity=33212 dram_eff=0.271
bk0: 346a 562867i bk1: 340a 562741i bk2: 248a 562749i bk3: 248a 562674i bk4: 336a 561217i bk5: 360a 560939i bk6: 192a 563250i bk7: 208a 563214i bk8: 284a 562795i bk9: 282a 562428i bk10: 212a 562807i bk11: 196a 562937i bk12: 280a 562582i bk13: 256a 562742i bk14: 220a 563071i bk15: 232a 562572i 
dram_util_bins: 0 0 0 0 0 0 0 0 0 0
dram_eff_bins: 0 0 0 0 0 0 0 0 0 0
mrqq: max=16 avg=0.0290769
Memory Partition 7: 
Cache L2_bank_014:
MSHR contents

Cache L2_bank_015:
MSHR contents

In Dram Latency Queue (total = 0): 
DRAM[7]: 16 bks, busW=4 BL=8 CL=12, tRRD=2 tCCD=6, tRCD=12 tRAS=28 tRP=12 tRC=40
n_cmd=564400 n_nop=559155 n_act=451 n_pre=435 n_req=2252 n_rd=4126 n_write=233 bw_util=0.01545
n_activity=33576 dram_eff=0.2596
bk0: 292a 562920i bk1: 278a 563002i bk2: 268a 562520i bk3: 266a 562460i bk4: 354a 561157i bk5: 360a 561166i bk6: 232a 563299i bk7: 234a 563057i bk8: 240a 563127i bk9: 242a 562875i bk10: 210a 563016i bk11: 204a 563000i bk12: 262a 562904i bk13: 246a 563110i bk14: 210a 562807i bk15: 228a 562682i 
dram_util_bins: 0 0 0 0 0 0 0 0 0 0
dram_eff_bins: 0 0 0 0 0 0 0 0 0 0
mrqq: max=12 avg=0.0170198
Memory Partition 8: 
Cache L2_bank_016:
MSHR contents

Cache L2_bank_017:
MSHR contents

In Dram Latency Queue (total = 0): 
DRAM[8]: 16 bks, busW=4 BL=8 CL=12, tRRD=2 tCCD=6, tRCD=12 tRAS=28 tRP=12 tRC=40
n_cmd=564400 n_nop=559017 n_act=420 n_pre=404 n_req=2350 n_rd=4328 n_write=231 bw_util=0.01616
n_activity=32313 dram_eff=0.2822
bk0: 360a 562787i bk1: 352a 562470i bk2: 266a 562243i bk3: 240a 562638i bk4: 350a 561775i bk5: 326a 561739i bk6: 198a 563053i bk7: 172a 563158i bk8: 316a 562425i bk9: 306a 562403i bk10: 220a 562748i bk11: 198a 563030i bk12: 278a 562476i bk13: 302a 562202i bk14: 226a 562660i bk15: 218a 562404i 
dram_util_bins: 0 0 0 0 0 0 0 0 0 0
dram_eff_bins: 0 0 0 0 0 0 0 0 0 0
mrqq: max=16 avg=0.0368533
Memory Partition 9: 
Cache L2_bank_018:
MSHR contents

Cache L2_bank_019:
MSHR contents

In Dram Latency Queue (total = 0): 
DRAM[9]: 16 bks, busW=4 BL=8 CL=12, tRRD=2 tCCD=6, tRCD=12 tRAS=28 tRP=12 tRC=40
n_cmd=564400 n_nop=559048 n_act=476 n_pre=460 n_req=2280 n_rd=4204 n_write=212 bw_util=0.01565
n_activity=34296 dram_eff=0.2575
bk0: 298a 563074i bk1: 304a 562826i bk2: 238a 562286i bk3: 248a 562315i bk4: 370a 560834i bk5: 376a 560876i bk6: 216a 562668i bk7: 218a 563077i bk8: 284a 562625i bk9: 244a 562819i bk10: 208a 563014i bk11: 212a 563019i bk12: 282a 562659i bk13: 268a 562386i bk14: 218a 562506i bk15: 220a 562601i 
dram_util_bins: 0 0 0 0 0 0 0 0 0 0
dram_eff_bins: 0 0 0 0 0 0 0 0 0 0
mrqq: max=15 avg=0.0293533
Memory Partition 10: 
Cache L2_bank_020:
MSHR contents

Cache L2_bank_021:
MSHR contents

In Dram Latency Queue (total = 0): 
DRAM[10]: 16 bks, busW=4 BL=8 CL=12, tRRD=2 tCCD=6, tRCD=12 tRAS=28 tRP=12 tRC=40
n_cmd=564400 n_nop=558950 n_act=432 n_pre=416 n_req=2380 n_rd=4334 n_write=268 bw_util=0.01631
n_activity=32400 dram_eff=0.2841
bk0: 364a 562834i bk1: 358a 562351i bk2: 250a 562377i bk3: 274a 562322i bk4: 346a 560884i bk5: 336a 561058i bk6: 198a 563026i bk7: 204a 562949i bk8: 278a 562689i bk9: 290a 562369i bk10: 212a 562702i bk11: 208a 562545i bk12: 280a 562463i bk13: 302a 562160i bk14: 210a 562933i bk15: 224a 562487i 
dram_util_bins: 0 0 0 0 0 0 0 0 0 0
dram_eff_bins: 0 0 0 0 0 0 0 0 0 0
mrqq: max=16 avg=0.0391283
Memory Partition 11: 
Cache L2_bank_022:
MSHR contents

Cache L2_bank_023:
MSHR contents

In Dram Latency Queue (total = 0): 
DRAM[11]: 16 bks, busW=4 BL=8 CL=12, tRRD=2 tCCD=6, tRCD=12 tRAS=28 tRP=12 tRC=40
n_cmd=564400 n_nop=559181 n_act=464 n_pre=448 n_req=2220 n_rd=4102 n_write=205 bw_util=0.01526
n_activity=33265 dram_eff=0.259
bk0: 300a 562977i bk1: 262a 563134i bk2: 258a 562330i bk3: 254a 562635i bk4: 354a 561516i bk5: 340a 560897i bk6: 220a 562982i bk7: 230a 562806i bk8: 254a 562960i bk9: 260a 562538i bk10: 198a 562977i bk11: 216a 562842i bk12: 270a 562518i bk13: 262a 562528i bk14: 210a 562803i bk15: 214a 562728i 
dram_util_bins: 0 0 0 0 0 0 0 0 0 0
dram_eff_bins: 0 0 0 0 0 0 0 0 0 0
mrqq: max=15 avg=0.0250904
Memory Partition 12: 
Cache L2_bank_024:
MSHR contents

Cache L2_bank_025:
MSHR contents

In Dram Latency Queue (total = 0): 
DRAM[12]: 16 bks, busW=4 BL=8 CL=12, tRRD=2 tCCD=6, tRCD=12 tRAS=28 tRP=12 tRC=40
n_cmd=564400 n_nop=558810 n_act=503 n_pre=487 n_req=2374 n_rd=4350 n_write=250 bw_util=0.0163
n_activity=33665 dram_eff=0.2733
bk0: 366a 562566i bk1: 352a 562558i bk2: 240a 562734i bk3: 234a 562892i bk4: 356a 560977i bk5: 354a 560881i bk6: 194a 563032i bk7: 200a 562594i bk8: 320a 562282i bk9: 330a 562113i bk10: 186a 562960i bk11: 192a 562692i bk12: 298a 562492i bk13: 304a 562333i bk14: 218a 562797i bk15: 206a 562840i 
dram_util_bins: 0 0 0 0 0 0 0 0 0 0
dram_eff_bins: 0 0 0 0 0 0 0 0 0 0
mrqq: max=16 avg=0.0307282
Memory Partition 13: 
Cache L2_bank_026:
MSHR contents

Cache L2_bank_027:
MSHR contents

In Dram Latency Queue (total = 0): 
DRAM[13]: 16 bks, busW=4 BL=8 CL=12, tRRD=2 tCCD=6, tRCD=12 tRAS=28 tRP=12 tRC=40
n_cmd=564400 n_nop=559115 n_act=470 n_pre=454 n_req=2250 n_rd=4132 n_write=229 bw_util=0.01545
n_activity=33651 dram_eff=0.2592
bk0: 280a 563036i bk1: 294a 562836i bk2: 250a 562315i bk3: 250a 562466i bk4: 360a 561538i bk5: 368a 561182i bk6: 210a 562909i bk7: 210a 562800i bk8: 278a 562700i bk9: 290a 562528i bk10: 194a 563086i bk11: 200a 562734i bk12: 274a 562555i bk13: 270a 562817i bk14: 200a 562898i bk15: 204a 562487i 
dram_util_bins: 0 0 0 0 0 0 0 0 0 0
dram_eff_bins: 0 0 0 0 0 0 0 0 0 0
mrqq: max=16 avg=0.0282725
Memory Partition 14: 
Cache L2_bank_028:
MSHR contents

Cache L2_bank_029:
MSHR contents

In Dram Latency Queue (total = 0): 
DRAM[14]: 16 bks, busW=4 BL=8 CL=12, tRRD=2 tCCD=6, tRCD=12 tRAS=28 tRP=12 tRC=40
n_cmd=564400 n_nop=559073 n_act=447 n_pre=431 n_req=2295 n_rd=4214 n_write=235 bw_util=0.01577
n_activity=32426 dram_eff=0.2744
bk0: 336a 563005i bk1: 344a 562525i bk2: 252a 562609i bk3: 242a 562662i bk4: 346a 561329i bk5: 336a 560950i bk6: 198a 562841i bk7: 188a 563101i bk8: 290a 562448i bk9: 278a 562540i bk10: 194a 562908i bk11: 210a 562722i bk12: 274a 562719i bk13: 294a 562306i bk14: 214a 562900i bk15: 218a 562664i 
dram_util_bins: 0 0 0 0 0 0 0 0 0 0
dram_eff_bins: 0 0 0 0 0 0 0 0 0 0
mrqq: max=16 avg=0.0351807
Memory Partition 15: 
Cache L2_bank_030:
MSHR contents

Cache L2_bank_031:
MSHR contents

In Dram Latency Queue (total = 0): 
DRAM[15]: 16 bks, busW=4 BL=8 CL=12, tRRD=2 tCCD=6, tRCD=12 tRAS=28 tRP=12 tRC=40
n_cmd=564400 n_nop=559090 n_act=479 n_pre=463 n_req=2252 n_rd=4156 n_write=212 bw_util=0.01548
n_activity=34294 dram_eff=0.2547
bk0: 308a 562883i bk1: 296a 562756i bk2: 276a 562333i bk3: 244a 562824i bk4: 350a 561554i bk5: 358a 561328i bk6: 232a 562878i bk7: 212a 562957i bk8: 264a 562636i bk9: 264a 562880i bk10: 188a 562999i bk11: 204a 563091i bk12: 272a 562819i bk13: 280a 562771i bk14: 200a 562924i bk15: 208a 563082i 
dram_util_bins: 0 0 0 0 0 0 0 0 0 0
dram_eff_bins: 0 0 0 0 0 0 0 0 0 0
mrqq: max=10 avg=0.0184337

========= L2 cache stats =========
L2_cache_bank[0]: Access = 78210, Miss = 1103, Miss_rate = 0.014, Pending_hits = 12, Reservation_fails = 412
L2_cache_bank[1]: Access = 30267, Miss = 1088, Miss_rate = 0.036, Pending_hits = 5, Reservation_fails = 142
L2_cache_bank[2]: Access = 29895, Miss = 1028, Miss_rate = 0.034, Pending_hits = 3, Reservation_fails = 0
L2_cache_bank[3]: Access = 30203, Miss = 1022, Miss_rate = 0.034, Pending_hits = 6, Reservation_fails = 0
L2_cache_bank[4]: Access = 30328, Miss = 1093, Miss_rate = 0.036, Pending_hits = 4, Reservation_fails = 223
L2_cache_bank[5]: Access = 30604, Miss = 1085, Miss_rate = 0.035, Pending_hits = 2, Reservation_fails = 77
L2_cache_bank[6]: Access = 30257, Miss = 1064, Miss_rate = 0.035, Pending_hits = 1, Reservation_fails = 0
L2_cache_bank[7]: Access = 30349, Miss = 1063, Miss_rate = 0.035, Pending_hits = 1, Reservation_fails = 0
L2_cache_bank[8]: Access = 30509, Miss = 1077, Miss_rate = 0.035, Pending_hits = 4, Reservation_fails = 105
L2_cache_bank[9]: Access = 30497, Miss = 1074, Miss_rate = 0.035, Pending_hits = 8, Reservation_fails = 0
L2_cache_bank[10]: Access = 29896, Miss = 1050, Miss_rate = 0.035, Pending_hits = 1, Reservation_fails = 106
L2_cache_bank[11]: Access = 29552, Miss = 1026, Miss_rate = 0.035, Pending_hits = 3, Reservation_fails = 129
L2_cache_bank[12]: Access = 30286, Miss = 1059, Miss_rate = 0.035, Pending_hits = 7, Reservation_fails = 176
L2_cache_bank[13]: Access = 30143, Miss = 1061, Miss_rate = 0.035, Pending_hits = 1, Reservation_fails = 102
L2_cache_bank[14]: Access = 29128, Miss = 1034, Miss_rate = 0.035, Pending_hits = 6, Reservation_fails = 0
L2_cache_bank[15]: Access = 29342, Miss = 1029, Miss_rate = 0.035, Pending_hits = 3, Reservation_fails = 63
L2_cache_bank[16]: Access = 29905, Miss = 1107, Miss_rate = 0.037, Pending_hits = 1, Reservation_fails = 95
L2_cache_bank[17]: Access = 30197, Miss = 1057, Miss_rate = 0.035, Pending_hits = 3, Reservation_fails = 37
L2_cache_bank[18]: Access = 29723, Miss = 1057, Miss_rate = 0.036, Pending_hits = 6, Reservation_fails = 0
L2_cache_bank[19]: Access = 30189, Miss = 1045, Miss_rate = 0.035, Pending_hits = 4, Reservation_fails = 1
L2_cache_bank[20]: Access = 29830, Miss = 1069, Miss_rate = 0.036, Pending_hits = 2, Reservation_fails = 65
L2_cache_bank[21]: Access = 30105, Miss = 1098, Miss_rate = 0.036, Pending_hits = 6, Reservation_fails = 0
L2_cache_bank[22]: Access = 29696, Miss = 1032, Miss_rate = 0.035, Pending_hits = 0, Reservation_fails = 0
L2_cache_bank[23]: Access = 30070, Miss = 1019, Miss_rate = 0.034, Pending_hits = 0, Reservation_fails = 0
L2_cache_bank[24]: Access = 30142, Miss = 1089, Miss_rate = 0.036, Pending_hits = 2, Reservation_fails = 117
L2_cache_bank[25]: Access = 30477, Miss = 1086, Miss_rate = 0.036, Pending_hits = 0, Reservation_fails = 0
L2_cache_bank[26]: Access = 29768, Miss = 1023, Miss_rate = 0.034, Pending_hits = 1, Reservation_fails = 67
L2_cache_bank[27]: Access = 29814, Miss = 1043, Miss_rate = 0.035, Pending_hits = 2, Reservation_fails = 53
L2_cache_bank[28]: Access = 30333, Miss = 1052, Miss_rate = 0.035, Pending_hits = 3, Reservation_fails = 41
L2_cache_bank[29]: Access = 30376, Miss = 1055, Miss_rate = 0.035, Pending_hits = 2, Reservation_fails = 54
L2_cache_bank[30]: Access = 29720, Miss = 1045, Miss_rate = 0.035, Pending_hits = 2, Reservation_fails = 35
L2_cache_bank[31]: Access = 29933, Miss = 1033, Miss_rate = 0.035, Pending_hits = 1, Reservation_fails = 0
L2_total_cache_accesses = 1009744
L2_total_cache_misses = 33866
L2_total_cache_miss_rate = 0.0335
L2_total_cache_pending_hits = 102
L2_total_cache_reservation_fails = 2100
L2_total_cache_breakdown:
	L2_cache_stats_breakdown[GLOBAL_ACC_R][HIT] = 613837
	L2_cache_stats_breakdown[GLOBAL_ACC_R][HIT_RESERVED] = 37
	L2_cache_stats_breakdown[GLOBAL_ACC_R][MISS] = 31602
	L2_cache_stats_breakdown[GLOBAL_ACC_R][RESERVATION_FAIL] = 1602
	L2_cache_stats_breakdown[CONST_ACC_R][HIT] = 64
	L2_cache_stats_breakdown[CONST_ACC_R][HIT_RESERVED] = 3
	L2_cache_stats_breakdown[CONST_ACC_R][MISS] = 1
	L2_cache_stats_breakdown[CONST_ACC_R][RESERVATION_FAIL] = 129
	L2_cache_stats_breakdown[GLOBAL_ACC_W][HIT] = 361549
	L2_cache_stats_breakdown[GLOBAL_ACC_W][HIT_RESERVED] = 53
	L2_cache_stats_breakdown[GLOBAL_ACC_W][MISS] = 2258
	L2_cache_stats_breakdown[INST_ACC_R][HIT] = 326
	L2_cache_stats_breakdown[INST_ACC_R][HIT_RESERVED] = 9
	L2_cache_stats_breakdown[INST_ACC_R][MISS] = 5
	L2_cache_stats_breakdown[INST_ACC_R][RESERVATION_FAIL] = 369
L2_cache_data_port_util = 0.206
L2_cache_fill_port_util = 0.010

icnt_total_pkts_mem_to_simt=3593144
icnt_total_pkts_simt_to_mem=1373855
LD_mem_lat_dist  0 0 0 0 0 0 0 0 0 0 0 0 0 0 0 0 0 0 0 0 0 0 0 0 0 0 0
ST_mem_lat_dist  0 0 0 0 0 0 0 0 0 0 0 0 0 0 0 0 0 0 0 0 0 0 0 0 0 0 0
----------------------------Interconnect-DETAILS--------------------------------
Class 0:
Packet latency average = 8.38889
	minimum = 6
	maximum = 14
Network latency average = 8.26628
	minimum = 6
	maximum = 12
Slowest packet = 2018793
Flit latency average = 6.27628
	minimum = 6
	maximum = 9
Slowest flit = 4966044
Fragmentation average = 0
	minimum = 0
	maximum = 0
Injected packet rate average = 0.00782609
	minimum = 0.00449775 (at node 45)
	maximum = 0.0134933 (at node 94)
Accepted packet rate average = 0.00782609
	minimum = 0.00449775 (at node 45)
	maximum = 0.0134933 (at node 94)
Injected flit rate average = 0.0233883
	minimum = 0.00449775 (at node 45)
	maximum = 0.0637181 (at node 75)
Accepted flit rate average= 0.0233883
	minimum = 0.011994 (at node 68)
	maximum = 0.0427286 (at node 2)
Injected packet length average = 2.98851
Accepted packet length average = 2.98851
Total in-flight flits = 0 (0 measured)
====== Overall Traffic Statistics ======
====== Traffic class 0 ======
Packet latency average = 71.9154 (10 samples)
	minimum = 6 (10 samples)
	maximum = 1024.9 (10 samples)
Network latency average = 41.7668 (10 samples)
	minimum = 6 (10 samples)
	maximum = 805.6 (10 samples)
Flit latency average = 28.8777 (10 samples)
	minimum = 6 (10 samples)
	maximum = 804.1 (10 samples)
Fragmentation average = 0.0126181 (10 samples)
	minimum = 0 (10 samples)
	maximum = 118.9 (10 samples)
Injected packet rate average = 0.0254868 (10 samples)
	minimum = 0.00999455 (10 samples)
	maximum = 0.119351 (10 samples)
Accepted packet rate average = 0.0254868 (10 samples)
	minimum = 0.00999455 (10 samples)
	maximum = 0.119351 (10 samples)
Injected flit rate average = 0.0636806 (10 samples)
	minimum = 0.0128335 (10 samples)
	maximum = 0.241355 (10 samples)
Accepted flit rate average = 0.0636806 (10 samples)
	minimum = 0.0307134 (10 samples)
	maximum = 0.230284 (10 samples)
Injected packet size average = 2.49858 (10 samples)
Accepted packet size average = 2.49858 (10 samples)
Hops average = 1 (10 samples)
----------------------------END-of-Interconnect-DETAILS-------------------------


gpgpu_simulation_time = 0 days, 0 hrs, 23 min, 9 sec (1389 sec)
gpgpu_simulation_rate = 18851 (inst/sec)
gpgpu_simulation_rate = 307 (cycle/sec)
GPGPU-Sim: synchronize waiting for inactive GPU simulation
GPGPU-Sim API: Stream Manager State
GPGPU-Sim: detected inactive GPU simulation thread
Kernel Executed 10 times
Processing time: 1388689.125000 (ms)
Result stored in result.txt
