

        *** GPGPU-Sim Simulator Version 3.2.2  [build 0] ***


GPGPU-Sim PTX: simulation mode 0 (can change with PTX_SIM_MODE_FUNC environment variable:
               1=functional simulation only, 0=detailed performance simulator)
GPGPU-Sim: Configuration options:

-network_mode                           1 # Interconnection network mode
-inter_config_file   config_fermi_islip.icnt # Interconnection network config file
-gpgpu_ptx_use_cuobjdump                    1 # Use cuobjdump to extract ptx and sass from binaries
-gpgpu_experimental_lib_support                    0 # Try to extract code from cuda libraries [Broken because of unknown cudaGetExportTable]
-gpgpu_ptx_convert_to_ptxplus                    0 # Convert SASS (native ISA) to ptxplus and run ptxplus
-gpgpu_ptx_force_max_capability                   20 # Force maximum compute capability
-gpgpu_ptx_inst_debug_to_file                    0 # Dump executed instructions' debug information to file
-gpgpu_ptx_inst_debug_file       inst_debug.txt # Executed instructions' debug output file
-gpgpu_ptx_inst_debug_thread_uid                    1 # Thread UID for executed instructions' debug output
-gpgpu_simd_model                       1 # 1 = post-dominator
-gpgpu_shader_core_pipeline              1536:32 # shader core pipeline config, i.e., {<nthread>:<warpsize>}
-gpgpu_tex_cache:l1  4:128:24,L:R:m:N:L,F:128:4,128:2 # per-shader L1 texture cache  (READ-ONLY) config  {<nsets>:<bsize>:<assoc>,<rep>:<wr>:<alloc>:<wr_alloc>,<mshr>:<N>:<merge>,<mq>:<rf>}
-gpgpu_const_cache:l1 64:64:2,L:R:f:N:L,A:2:32,4 # per-shader L1 constant memory cache  (READ-ONLY) config  {<nsets>:<bsize>:<assoc>,<rep>:<wr>:<alloc>:<wr_alloc>,<mshr>:<N>:<merge>,<mq>} 
-gpgpu_cache:il1     4:128:4,L:R:f:N:L,A:2:32,4 # shader L1 instruction cache config  {<nsets>:<bsize>:<assoc>,<rep>:<wr>:<alloc>:<wr_alloc>,<mshr>:<N>:<merge>,<mq>} 
-gpgpu_cache:dl1     32:128:4,L:L:m:N:H,A:32:8,8 # per-shader L1 data cache config  {<nsets>:<bsize>:<assoc>,<rep>:<wr>:<alloc>:<wr_alloc>,<mshr>:<N>:<merge>,<mq> | none}
-gpgpu_cache:dl1PrefL1                 none # per-shader L1 data cache config  {<nsets>:<bsize>:<assoc>,<rep>:<wr>:<alloc>:<wr_alloc>,<mshr>:<N>:<merge>,<mq> | none}
-gpgpu_cache:dl1PreShared                 none # per-shader L1 data cache config  {<nsets>:<bsize>:<assoc>,<rep>:<wr>:<alloc>:<wr_alloc>,<mshr>:<N>:<merge>,<mq> | none}
-gmem_skip_L1D                          0 # global memory access skip L1D cache (implements -Xptxas -dlcm=cg, default=no skip)
-gpgpu_perfect_mem                      0 # enable perfect memory mode (no cache miss)
-n_regfile_gating_group                    4 # group of lanes that should be read/written together)
-gpgpu_clock_gated_reg_file                    0 # enable clock gated reg file for power calculations
-gpgpu_clock_gated_lanes                    0 # enable clock gated lanes for power calculations
-gpgpu_shader_registers                32768 # Number of registers per shader core. Limits number of concurrent CTAs. (default 8192)
-gpgpu_shader_cta                       8 # Maximum number of concurrent CTAs in shader (default 8)
-gpgpu_num_cta_barriers                   16 # Maximum number of named barriers per CTA (default 16)
-gpgpu_n_clusters                      80 # number of processing clusters
-gpgpu_n_cores_per_cluster                    1 # number of simd cores per cluster
-gpgpu_n_cluster_ejection_buffer_size                    8 # number of packets in ejection buffer
-gpgpu_n_ldst_response_buffer_size                    2 # number of response packets in ld/st unit ejection buffer
-gpgpu_shmem_size                   16384 # Size of shared memory per shader core (default 16kB)
-gpgpu_shmem_size                   49152 # Size of shared memory per shader core (default 16kB)
-gpgpu_shmem_size_PrefL1                16384 # Size of shared memory per shader core (default 16kB)
-gpgpu_shmem_size_PrefShared                16384 # Size of shared memory per shader core (default 16kB)
-gpgpu_shmem_num_banks                   32 # Number of banks in the shared memory in each shader core (default 16)
-gpgpu_shmem_limited_broadcast                    0 # Limit shared memory to do one broadcast per cycle (default on)
-gpgpu_shmem_warp_parts                    1 # Number of portions a warp is divided into for shared memory bank conflict check 
-gpgpu_warpdistro_shader                   -1 # Specify which shader core to collect the warp size distribution from
-gpgpu_warp_issue_shader                    0 # Specify which shader core to collect the warp issue distribution from
-gpgpu_local_mem_map                    1 # Mapping from local memory space address to simulated GPU physical address space (default = enabled)
-gpgpu_num_reg_banks                   16 # Number of register banks (default = 8)
-gpgpu_reg_bank_use_warp_id                    0 # Use warp ID in mapping registers to banks (default = off)
-gpgpu_operand_collector_num_units_sp                    6 # number of collector units (default = 4)
-gpgpu_operand_collector_num_units_sfu                    8 # number of collector units (default = 4)
-gpgpu_operand_collector_num_units_mem                    2 # number of collector units (default = 2)
-gpgpu_operand_collector_num_units_gen                    0 # number of collector units (default = 0)
-gpgpu_operand_collector_num_in_ports_sp                    2 # number of collector unit in ports (default = 1)
-gpgpu_operand_collector_num_in_ports_sfu                    1 # number of collector unit in ports (default = 1)
-gpgpu_operand_collector_num_in_ports_mem                    1 # number of collector unit in ports (default = 1)
-gpgpu_operand_collector_num_in_ports_gen                    0 # number of collector unit in ports (default = 0)
-gpgpu_operand_collector_num_out_ports_sp                    2 # number of collector unit in ports (default = 1)
-gpgpu_operand_collector_num_out_ports_sfu                    1 # number of collector unit in ports (default = 1)
-gpgpu_operand_collector_num_out_ports_mem                    1 # number of collector unit in ports (default = 1)
-gpgpu_operand_collector_num_out_ports_gen                    0 # number of collector unit in ports (default = 0)
-gpgpu_coalesce_arch                   13 # Coalescing arch (default = 13, anything else is off for now)
-gpgpu_num_sched_per_core                    2 # Number of warp schedulers per core
-gpgpu_max_insn_issue_per_warp                    1 # Max number of instructions that can be issued per warp in one cycle by scheduler
-gpgpu_simt_core_sim_order                    1 # Select the simulation order of cores in a cluster (0=Fix, 1=Round-Robin)
-gpgpu_pipeline_widths        2,1,1,2,1,1,2 # Pipeline widths ID_OC_SP,ID_OC_SFU,ID_OC_MEM,OC_EX_SP,OC_EX_SFU,OC_EX_MEM,EX_WB
-gpgpu_num_sp_units                     2 # Number of SP units (default=1)
-gpgpu_num_sfu_units                    1 # Number of SF units (default=1)
-gpgpu_num_mem_units                    1 # Number if ldst units (default=1) WARNING: not hooked up to anything
-gpgpu_scheduler                      gto # Scheduler configuration: < lrr | gto | two_level_active > If two_level_active:<num_active_warps>:<inner_prioritization>:<outer_prioritization>For complete list of prioritization values see shader.h enum scheduler_prioritization_typeDefault: gto
-gpgpu_dram_scheduler                    1 # 0 = fifo, 1 = FR-FCFS (defaul)
-gpgpu_dram_partition_queues              8:8:8:8 # i2$:$2d:d2$:$2i
-l2_ideal                               0 # Use a ideal L2 cache that always hit
-gpgpu_cache:dl2     64:128:8,L:B:m:W:L,A:32:4,4:0,32 # unified banked L2 data cache config  {<nsets>:<bsize>:<assoc>,<rep>:<wr>:<alloc>:<wr_alloc>,<mshr>:<N>:<merge>,<mq>}
-gpgpu_cache:dl2_texture_only                    0 # L2 cache used for texture only
-gpgpu_n_mem                           20 # number of memory modules (e.g. memory controllers) in gpu
-gpgpu_n_sub_partition_per_mchannel                    2 # number of memory subpartition in each memory module
-gpgpu_n_mem_per_ctrlr                    2 # number of memory chips per memory controller
-gpgpu_memlatency_stat                   14 # track and display latency statistics 0x2 enables MC, 0x4 enables queue logs
-gpgpu_frfcfs_dram_sched_queue_size                   16 # 0 = unlimited (default); # entries per chip
-gpgpu_dram_return_queue_size                  116 # 0 = unlimited (default); # entries per chip
-gpgpu_dram_buswidth                    4 # default = 4 bytes (8 bytes per cycle at DDR)
-gpgpu_dram_burst_length                    8 # Burst length of each DRAM request (default = 4 data bus cycle)
-dram_data_command_freq_ratio                    4 # Frequency ratio between DRAM data bus and command bus (default = 2 times, i.e. DDR)
-gpgpu_dram_timing_opt nbk=16:CCD=2:RRD=6:RCD=12:RAS=28:RP=12:RC=40: CL=12:WL=4:CDLR=5:WR=12:nbkgrp=4:CCDL=3:RTPL=2 # DRAM timing parameters = {nbk:tCCD:tRRD:tRCD:tRAS:tRP:tRC:CL:WL:tCDLR:tWR:nbkgrp:tCCDL:tRTPL}
-rop_latency                          120 # ROP queue latency (default 85)
-dram_latency                         100 # DRAM latency (default 30)
-gpgpu_mem_addr_mapping dramid@8;00000000.00000000.00000000.00000000.0000RRRR.RRRRRRRR.BBBCCCCB.CCSSSSSS # mapping memory address to dram model {dramid@<start bit>;<memory address map>}
-gpgpu_mem_addr_test                    0 # run sweep test to check address mapping for aliased address
-gpgpu_mem_address_mask                    1 # 0 = old addressing mask, 1 = new addressing mask, 2 = new add. mask + flipped bank sel and chip sel bits
-gpuwattch_xml_file  gpuwattch_gtx480.xml # GPUWattch XML file
-power_simulation_enabled                    1 # Turn on power simulator (1=On, 0=Off)
-power_per_cycle_dump                    0 # Dump detailed power output each cycle
-power_trace_enabled                    0 # produce a file for the power trace (1=On, 0=Off)
-power_trace_zlevel                     6 # Compression level of the power trace output log (0=no comp, 9=highest)
-steady_power_levels_enabled                    0 # produce a file for the steady power levels (1=On, 0=Off)
-steady_state_definition                  8:4 # allowed deviation:number of samples
-gpgpu_max_cycle                        0 # terminates gpu simulation early (0 = no limit)
-gpgpu_max_insn                         0 # terminates gpu simulation early (0 = no limit)
-gpgpu_max_cta                          0 # terminates gpu simulation early (0 = no limit)
-gpgpu_runtime_stat                   500 # display runtime statistics such as dram utilization {<freq>:<flag>}
-liveness_message_freq                    1 # Minimum number of seconds between simulation liveness messages (0 = always print)
-gpgpu_flush_l1_cache                    0 # Flush L1 cache at the end of each kernel call
-gpgpu_flush_l2_cache                    0 # Flush L2 cache at the end of each kernel call
-gpgpu_deadlock_detect                    1 # Stop the simulation at deadlock (1=on (default), 0=off)
-gpgpu_ptx_instruction_classification                    0 # if enabled will classify ptx instruction types per kernel (Max 255 kernels now)
-gpgpu_ptx_sim_mode                     0 # Select between Performance (default) or Functional simulation (1)
-gpgpu_clock_domains 700.0:700.0:700.0:924.0 # Clock Domain Frequencies in MhZ {<Core Clock>:<ICNT Clock>:<L2 Clock>:<DRAM Clock>}
-gpgpu_max_concurrent_kernel                    8 # maximum kernels that can run concurrently on GPU
-gpgpu_cflog_interval                    0 # Interval between each snapshot in control flow logger
-visualizer_enabled                     0 # Turn on visualizer output (1=On, 0=Off)
-visualizer_outputfile                 NULL # Specifies the output log file for visualizer
-visualizer_zlevel                      6 # Compression level of the visualizer output log (0=no comp, 9=highest)
-trace_enabled                          0 # Turn on traces
-trace_components                    none # comma seperated list of traces to enable. Complete list found in trace_streams.tup. Default none
-trace_sampling_core                    0 # The core which is printed using CORE_DPRINTF. Default 0
-trace_sampling_memory_partition                   -1 # The memory partition which is printed using MEMPART_DPRINTF. Default -1 (i.e. all)
-enable_ptx_file_line_stats                    1 # Turn on PTX source line statistic profiling. (1 = On)
-ptx_line_stats_filename gpgpu_inst_stats.txt # Output file for PTX source line statistics.
-save_embedded_ptx                      0 # saves ptx files embedded in binary as <n>.ptx
-keep                                   0 # keep intermediate files created by GPGPU-Sim when interfacing with external programs
-gpgpu_ptx_save_converted_ptxplus                    0 # Saved converted ptxplus to a file
-ptx_opcode_latency_int         4,13,4,5,145 # Opcode latencies for integers <ADD,MAX,MUL,MAD,DIV>Default 1,1,19,25,145
-ptx_opcode_latency_fp          4,13,4,5,39 # Opcode latencies for single precision floating points <ADD,MAX,MUL,MAD,DIV>Default 1,1,1,1,30
-ptx_opcode_latency_dp         8,19,8,8,330 # Opcode latencies for double precision floating points <ADD,MAX,MUL,MAD,DIV>Default 8,8,8,8,335
-ptx_opcode_initiation_int            1,2,2,1,8 # Opcode initiation intervals for integers <ADD,MAX,MUL,MAD,DIV>Default 1,1,4,4,32
-ptx_opcode_initiation_fp            1,2,1,1,4 # Opcode initiation intervals for single precision floating points <ADD,MAX,MUL,MAD,DIV>Default 1,1,1,1,5
-ptx_opcode_initiation_dp         8,16,8,8,130 # Opcode initiation intervals for double precision floating points <ADD,MAX,MUL,MAD,DIV>Default 8,8,8,8,130
DRAM Timing Options:
nbk                                    16 # number of banks
CCD                                     2 # column to column delay
RRD                                     6 # minimal delay between activation of rows in different banks
RCD                                    12 # row to column delay
RAS                                    28 # time needed to activate row
RP                                     12 # time needed to precharge (deactivate) row
RC                                     40 # row cycle time
CDLR                                    5 # switching from write to read (changes tWTR)
WR                                     12 # last data-in to row precharge
CL                                     12 # CAS latency
WL                                      4 # Write latency
nbkgrp                                  4 # number of bank groups
CCDL                                    3 # column to column delay between accesses to different bank groups
RTPL                                    2 # read to precharge delay between accesses to different bank groups
Total number of memory sub partition = 40
addr_dec_mask[CHIP]  = 0000000000000000 	high:64 low:0
addr_dec_mask[BK]    = 000000000000e100 	high:16 low:8
addr_dec_mask[ROW]   = 000000000fff0000 	high:28 low:16
addr_dec_mask[COL]   = 0000000000001eff 	high:13 low:0
addr_dec_mask[BURST] = 000000000000003f 	high:6 low:0
sub_partition_id_mask = 0000000000000100
GPGPU-Sim uArch: clock freqs: 700000000.000000:700000000.000000:700000000.000000:924000000.000000
GPGPU-Sim uArch: clock periods: 0.00000000142857142857:0.00000000142857142857:0.00000000142857142857:0.00000000108225108225
*** Initializing Memory Statistics ***
GPGPU-Sim uArch: interconnect node map (shaderID+MemID to icntID)
GPGPU-Sim uArch: Memory nodes ID start from index: 80
GPGPU-Sim uArch:    0   1   2   3   4   5   6   7   8   9
GPGPU-Sim uArch:   10  11  12  13  14  15  16  17  18  19
GPGPU-Sim uArch:   20  21  22  23  24  25  26  27  28  29
GPGPU-Sim uArch:   30  31  32  33  34  35  36  37  38  39
GPGPU-Sim uArch:   40  41  42  43  44  45  46  47  48  49
GPGPU-Sim uArch:   50  51  52  53  54  55  56  57  58  59
GPGPU-Sim uArch:   60  61  62  63  64  65  66  67  68  69
GPGPU-Sim uArch:   70  71  72  73  74  75  76  77  78  79
GPGPU-Sim uArch:   80  81  82  83  84  85  86  87  88  89
GPGPU-Sim uArch:   90  91  92  93  94  95  96  97  98  99
GPGPU-Sim uArch:  100 101 102 103 104 105 106 107 108 109
GPGPU-Sim uArch:  110 111 112 113 114 115 116 117 118 119
GPGPU-Sim uArch: interconnect node reverse map (icntID to shaderID+MemID)
GPGPU-Sim uArch: Memory nodes start from ID: 80
GPGPU-Sim uArch:    0   1   2   3   4   5   6   7   8   9
GPGPU-Sim uArch:   10  11  12  13  14  15  16  17  18  19
GPGPU-Sim uArch:   20  21  22  23  24  25  26  27  28  29
GPGPU-Sim uArch:   30  31  32  33  34  35  36  37  38  39
GPGPU-Sim uArch:   40  41  42  43  44  45  46  47  48  49
GPGPU-Sim uArch:   50  51  52  53  54  55  56  57  58  59
GPGPU-Sim uArch:   60  61  62  63  64  65  66  67  68  69
GPGPU-Sim uArch:   70  71  72  73  74  75  76  77  78  79
GPGPU-Sim uArch:   80  81  82  83  84  85  86  87  88  89
GPGPU-Sim uArch:   90  91  92  93  94  95  96  97  98  99
GPGPU-Sim uArch:  100 101 102 103 104 105 106 107 108 109
GPGPU-Sim uArch:  110 111 112 113 114 115 116 117 118 119
5f50f4a99376f06d6117c4587fc14674  /root/ispass2009-benchmarks/bin/release/RAY
GPGPU-Sim uArch: performance model initialization complete.
GPGPU-Sim PTX: __cudaRegisterFatBinary, fat_cubin_handle = 1, filename=rayTracing.cu
self exe links to: /root/ispass2009-benchmarks/bin/release/RAY
Running md5sum using "md5sum /root/ispass2009-benchmarks/bin/release/RAY "
Running cuobjdump using "$CUDA_INSTALL_PATH/bin/cuobjdump -ptx -elf -sass /root/ispass2009-benchmarks/bin/release/RAY > _cuobjdump_complete_output_0kfxU8"
Parsing file _cuobjdump_complete_output_0kfxU8
######### cuobjdump parser ########
## Adding new section PTX
Adding ptx filename: _cuobjdump_1.ptx
Adding arch: sm_30
Adding identifier: rayTracing.cu
## Adding new section ELF
Adding arch: sm_30
Adding identifier: rayTracing.cu
## Adding new section ELF
Adding arch: sm_20
Adding identifier: rayTracing.cu
## Adding new section PTX
Adding ptx filename: _cuobjdump_2.ptx
Adding arch: sm_20
Adding identifier: rayTracing.cu
## Adding new section PTX
Adding ptx filename: _cuobjdump_3.ptx
Adding arch: sm_10
Adding identifier: rayTracing.cu
## Adding new section ELF
Adding arch: sm_10
Adding identifier: rayTracing.cu
Done parsing!!!
GPGPU-Sim PTX: __cudaRegisterFunction _Z6renderPjP4Nodejjff : hostFun 0x0x40ad70, fat_cubin_handle = 1
GPGPU-Sim PTX: allocating constant region for "MView" from 0x100 to 0x130 (global memory space) 1
GPGPU-Sim PTX: allocating constant region for "cnode" from 0x180 to 0x220 (global memory space) 2
GPGPU-Sim PTX: allocating stack frame region for .param "func_retval0" from 0x0 to 0xc
GPGPU-Sim PTX: allocating stack frame region for .param "_Zmi6float3S__param_0" from 0xc to 0x18
GPGPU-Sim PTX: allocating stack frame region for .param "_Zmi6float3S__param_1" from 0x18 to 0x24
GPGPU-Sim PTX: instruction assembly for function '_Zmi6float3S_'...   done.
GPGPU-Sim PTX: finding reconvergence points for '_Zmi6float3S_'...
GPGPU-Sim PTX: Finding dominators for '_Zmi6float3S_'...
GPGPU-Sim PTX: Finding immediate dominators for '_Zmi6float3S_'...
GPGPU-Sim PTX: Finding postdominators for '_Zmi6float3S_'...
GPGPU-Sim PTX: Finding immediate postdominators for '_Zmi6float3S_'...
GPGPU-Sim PTX: pre-decoding instructions for '_Zmi6float3S_'...
GPGPU-Sim PTX: reconvergence points for _Zmi6float3S_...
GPGPU-Sim PTX: ... end of reconvergence points for _Zmi6float3S_
GPGPU-Sim PTX: ... done pre-decoding instructions for '_Zmi6float3S_'.
GPGPU-Sim PTX: allocating stack frame region for .param "func_retval0" from 0x0 to 0xc
GPGPU-Sim PTX: allocating stack frame region for .param "_Z9normalize6float3_param_0" from 0xc to 0x18
GPGPU-Sim PTX: instruction assembly for function '_Z9normalize6float3'...   done.
GPGPU-Sim PTX: finding reconvergence points for '_Z9normalize6float3'...
GPGPU-Sim PTX: Finding dominators for '_Z9normalize6float3'...
GPGPU-Sim PTX: Finding immediate dominators for '_Z9normalize6float3'...
GPGPU-Sim PTX: Finding postdominators for '_Z9normalize6float3'...
GPGPU-Sim PTX: Finding immediate postdominators for '_Z9normalize6float3'...
GPGPU-Sim PTX: pre-decoding instructions for '_Z9normalize6float3'...
GPGPU-Sim PTX: reconvergence points for _Z9normalize6float3...
GPGPU-Sim PTX: ... end of reconvergence points for _Z9normalize6float3
GPGPU-Sim PTX: ... done pre-decoding instructions for '_Z9normalize6float3'.
GPGPU-Sim PTX: allocating stack frame region for .param "func_retval0" from 0x0 to 0x4
GPGPU-Sim PTX: allocating stack frame region for .param "_Z18intersectionSphere5Rayon6float3f_param_0" from 0x4 to 0x1c
GPGPU-Sim PTX: allocating stack frame region for .param "_Z18intersectionSphere5Rayon6float3f_param_1" from 0x1c to 0x28
GPGPU-Sim PTX: allocating stack frame region for .param "_Z18intersectionSphere5Rayon6float3f_param_2" from 0x28 to 0x2c
GPGPU-Sim PTX: instruction assembly for function '_Z18intersectionSphere5Rayon6float3f'...   done.
GPGPU-Sim PTX: finding reconvergence points for '_Z18intersectionSphere5Rayon6float3f'...
GPGPU-Sim PTX: Finding dominators for '_Z18intersectionSphere5Rayon6float3f'...
GPGPU-Sim PTX: Finding immediate dominators for '_Z18intersectionSphere5Rayon6float3f'...
GPGPU-Sim PTX: Finding postdominators for '_Z18intersectionSphere5Rayon6float3f'...
GPGPU-Sim PTX: Finding immediate postdominators for '_Z18intersectionSphere5Rayon6float3f'...
GPGPU-Sim PTX: pre-decoding instructions for '_Z18intersectionSphere5Rayon6float3f'...
GPGPU-Sim PTX: reconvergence points for _Z18intersectionSphere5Rayon6float3f...
GPGPU-Sim PTX:  1 (potential) branch divergence @  PC=0x1b8 (_1.ptx:122) @%p3 bra BB2_3;
GPGPU-Sim PTX:    immediate post dominator      @ 
GPGPU-Sim PTX:  2 (potential) branch divergence @  PC=0x1d8 (_1.ptx:129) @%p4 bra BB2_3;
GPGPU-Sim PTX:    immediate post dominator      @ 
GPGPU-Sim PTX: ... end of reconvergence points for _Z18intersectionSphere5Rayon6float3f
GPGPU-Sim PTX: ... done pre-decoding instructions for '_Z18intersectionSphere5Rayon6float3f'.
GPGPU-Sim PTX: allocating stack frame region for .param "func_retval0" from 0x0 to 0x4
GPGPU-Sim PTX: allocating stack frame region for .param "_Z16intersectionPlan5Rayon6float3S0__param_0" from 0x4 to 0x1c
GPGPU-Sim PTX: allocating stack frame region for .param "_Z16intersectionPlan5Rayon6float3S0__param_1" from 0x1c to 0x28
GPGPU-Sim PTX: allocating stack frame region for .param "_Z16intersectionPlan5Rayon6float3S0__param_2" from 0x28 to 0x34
GPGPU-Sim PTX: instruction assembly for function '_Z16intersectionPlan5Rayon6float3S0_'...   done.
GPGPU-Sim PTX: finding reconvergence points for '_Z16intersectionPlan5Rayon6float3S0_'...
GPGPU-Sim PTX: Finding dominators for '_Z16intersectionPlan5Rayon6float3S0_'...
GPGPU-Sim PTX: Finding immediate dominators for '_Z16intersectionPlan5Rayon6float3S0_'...
GPGPU-Sim PTX: Finding postdominators for '_Z16intersectionPlan5Rayon6float3S0_'...
GPGPU-Sim PTX: Finding immediate postdominators for '_Z16intersectionPlan5Rayon6float3S0_'...
GPGPU-Sim PTX: pre-decoding instructions for '_Z16intersectionPlan5Rayon6float3S0_'...
GPGPU-Sim PTX: reconvergence points for _Z16intersectionPlan5Rayon6float3S0_...
GPGPU-Sim PTX:  1 (potential) branch divergence @  PC=0x2c0 (_1.ptx:185) @%p1 bra BB3_2;
GPGPU-Sim PTX:    immediate post dominator      @ 
GPGPU-Sim PTX: ... end of reconvergence points for _Z16intersectionPlan5Rayon6float3S0_
GPGPU-Sim PTX: ... done pre-decoding instructions for '_Z16intersectionPlan5Rayon6float3S0_'.
GPGPU-Sim PTX: allocating stack frame region for .param "func_retval0" from 0x0 to 0xc
GPGPU-Sim PTX: allocating stack frame region for .param "_Z10getNormale6float3S__param_0" from 0xc to 0x18
GPGPU-Sim PTX: allocating stack frame region for .param "_Z10getNormale6float3S__param_1" from 0x18 to 0x24
GPGPU-Sim PTX: instruction assembly for function '_Z10getNormale6float3S_'...   done.
GPGPU-Sim PTX: finding reconvergence points for '_Z10getNormale6float3S_'...
GPGPU-Sim PTX: Finding dominators for '_Z10getNormale6float3S_'...
GPGPU-Sim PTX: Finding immediate dominators for '_Z10getNormale6float3S_'...
GPGPU-Sim PTX: Finding postdominators for '_Z10getNormale6float3S_'...
GPGPU-Sim PTX: Finding immediate postdominators for '_Z10getNormale6float3S_'...
GPGPU-Sim PTX: pre-decoding instructions for '_Z10getNormale6float3S_'...
GPGPU-Sim PTX: reconvergence points for _Z10getNormale6float3S_...
GPGPU-Sim PTX: ... end of reconvergence points for _Z10getNormale6float3S_
GPGPU-Sim PTX: ... done pre-decoding instructions for '_Z10getNormale6float3S_'.
GPGPU-Sim PTX: allocating stack frame region for .param "func_retval0" from 0x0 to 0xc
GPGPU-Sim PTX: allocating stack frame region for .param "_Z11getNormaleP6float3_param_0" from 0xc to 0x18
GPGPU-Sim PTX: instruction assembly for function '_Z11getNormaleP6float3'...   done.
GPGPU-Sim PTX: finding reconvergence points for '_Z11getNormaleP6float3'...
GPGPU-Sim PTX: Finding dominators for '_Z11getNormaleP6float3'...
GPGPU-Sim PTX: Finding immediate dominators for '_Z11getNormaleP6float3'...
GPGPU-Sim PTX: Finding postdominators for '_Z11getNormaleP6float3'...
GPGPU-Sim PTX: Finding immediate postdominators for '_Z11getNormaleP6float3'...
GPGPU-Sim PTX: pre-decoding instructions for '_Z11getNormaleP6float3'...
GPGPU-Sim PTX: reconvergence points for _Z11getNormaleP6float3...
GPGPU-Sim PTX: ... end of reconvergence points for _Z11getNormaleP6float3
GPGPU-Sim PTX: ... done pre-decoding instructions for '_Z11getNormaleP6float3'.
GPGPU-Sim PTX: allocating stack frame region for .param "func_retval0" from 0x0 to 0xc
GPGPU-Sim PTX: allocating stack frame region for .param "_Z3mul10matrice3x46float3_param_0" from 0xc to 0x3c
GPGPU-Sim PTX: allocating stack frame region for .param "_Z3mul10matrice3x46float3_param_1" from 0x3c to 0x48
GPGPU-Sim PTX: instruction assembly for function '_Z3mul10matrice3x46float3'...   done.
GPGPU-Sim PTX: finding reconvergence points for '_Z3mul10matrice3x46float3'...
GPGPU-Sim PTX: Finding dominators for '_Z3mul10matrice3x46float3'...
GPGPU-Sim PTX: Finding immediate dominators for '_Z3mul10matrice3x46float3'...
GPGPU-Sim PTX: Finding postdominators for '_Z3mul10matrice3x46float3'...
GPGPU-Sim PTX: Finding immediate postdominators for '_Z3mul10matrice3x46float3'...
GPGPU-Sim PTX: pre-decoding instructions for '_Z3mul10matrice3x46float3'...
GPGPU-Sim PTX: reconvergence points for _Z3mul10matrice3x46float3...
GPGPU-Sim PTX: ... end of reconvergence points for _Z3mul10matrice3x46float3
GPGPU-Sim PTX: ... done pre-decoding instructions for '_Z3mul10matrice3x46float3'.
GPGPU-Sim PTX: allocating stack frame region for .param "func_retval0" from 0x0 to 0x10
GPGPU-Sim PTX: allocating stack frame region for .param "_Z3mul10matrice3x46float4_param_0" from 0x10 to 0x40
GPGPU-Sim PTX: allocating stack frame region for .param "_Z3mul10matrice3x46float4_param_1" from 0x40 to 0x50
GPGPU-Sim PTX: instruction assembly for function '_Z3mul10matrice3x46float4'...   done.
GPGPU-Sim PTX: finding reconvergence points for '_Z3mul10matrice3x46float4'...
GPGPU-Sim PTX: Finding dominators for '_Z3mul10matrice3x46float4'...
GPGPU-Sim PTX: Finding immediate dominators for '_Z3mul10matrice3x46float4'...
GPGPU-Sim PTX: Finding postdominators for '_Z3mul10matrice3x46float4'...
GPGPU-Sim PTX: Finding immediate postdominators for '_Z3mul10matrice3x46float4'...
GPGPU-Sim PTX: pre-decoding instructions for '_Z3mul10matrice3x46float4'...
GPGPU-Sim PTX: reconvergence points for _Z3mul10matrice3x46float4...
GPGPU-Sim PTX: ... end of reconvergence points for _Z3mul10matrice3x46float4
GPGPU-Sim PTX: ... done pre-decoding instructions for '_Z3mul10matrice3x46float4'.
GPGPU-Sim PTX: allocating stack frame region for .param "func_retval0" from 0x0 to 0x4
GPGPU-Sim PTX: allocating stack frame region for .param "_Z14rgbaFloatToInt6float4_param_0" from 0x4 to 0x14
GPGPU-Sim PTX: instruction assembly for function '_Z14rgbaFloatToInt6float4'...   done.
GPGPU-Sim PTX: finding reconvergence points for '_Z14rgbaFloatToInt6float4'...
GPGPU-Sim PTX: Finding dominators for '_Z14rgbaFloatToInt6float4'...
GPGPU-Sim PTX: Finding immediate dominators for '_Z14rgbaFloatToInt6float4'...
GPGPU-Sim PTX: Finding postdominators for '_Z14rgbaFloatToInt6float4'...
GPGPU-Sim PTX: Finding immediate postdominators for '_Z14rgbaFloatToInt6float4'...
GPGPU-Sim PTX: pre-decoding instructions for '_Z14rgbaFloatToInt6float4'...
GPGPU-Sim PTX: reconvergence points for _Z14rgbaFloatToInt6float4...
GPGPU-Sim PTX: ... end of reconvergence points for _Z14rgbaFloatToInt6float4
GPGPU-Sim PTX: ... done pre-decoding instructions for '_Z14rgbaFloatToInt6float4'.
GPGPU-Sim PTX: allocating stack frame region for .param "func_retval0" from 0x0 to 0x4
GPGPU-Sim PTX: allocating stack frame region for .param "_Z12notShadowRayP4Node6float3S1_f_param_0" from 0x4 to 0xc
GPGPU-Sim PTX: allocating stack frame region for .param "_Z12notShadowRayP4Node6float3S1_f_param_1" from 0xc to 0x18
GPGPU-Sim PTX: allocating stack frame region for .param "_Z12notShadowRayP4Node6float3S1_f_param_2" from 0x18 to 0x24
GPGPU-Sim PTX: allocating stack frame region for .param "_Z12notShadowRayP4Node6float3S1_f_param_3" from 0x24 to 0x28
GPGPU-Sim PTX: instruction assembly for function '_Z12notShadowRayP4Node6float3S1_f'...   done.
GPGPU-Sim PTX: finding reconvergence points for '_Z12notShadowRayP4Node6float3S1_f'...
GPGPU-Sim PTX: Finding dominators for '_Z12notShadowRayP4Node6float3S1_f'...
GPGPU-Sim PTX: Finding immediate dominators for '_Z12notShadowRayP4Node6float3S1_f'...
GPGPU-Sim PTX: Finding postdominators for '_Z12notShadowRayP4Node6float3S1_f'...
GPGPU-Sim PTX: Finding immediate postdominators for '_Z12notShadowRayP4Node6float3S1_f'...
GPGPU-Sim PTX: pre-decoding instructions for '_Z12notShadowRayP4Node6float3S1_f'...
GPGPU-Sim PTX: reconvergence points for _Z12notShadowRayP4Node6float3S1_f...
GPGPU-Sim PTX:  1 (potential) branch divergence @  PC=0x7c8 (_1.ptx:471) @%p2 bra BB9_4;
GPGPU-Sim PTX:    immediate post dominator      @  PC=0x938 (_1.ptx:551) mov.f32 %f26, %f78;
GPGPU-Sim PTX:  2 (potential) branch divergence @  PC=0x810 (_1.ptx:486) @%p3 bra BB9_7;
GPGPU-Sim PTX:    immediate post dominator      @  PC=0x938 (_1.ptx:551) mov.f32 %f26, %f78;
GPGPU-Sim PTX:  3 (potential) branch divergence @  PC=0x868 (_1.ptx:505) bra.uni BB9_8;
GPGPU-Sim PTX:    immediate post dominator      @  PC=0x938 (_1.ptx:551) mov.f32 %f26, %f78;
GPGPU-Sim PTX:  4 (potential) branch divergence @  PC=0x8d8 (_1.ptx:529) @%p6 bra BB9_7;
GPGPU-Sim PTX:    immediate post dominator      @  PC=0x938 (_1.ptx:551) mov.f32 %f26, %f78;
GPGPU-Sim PTX:  5 (potential) branch divergence @  PC=0x8f8 (_1.ptx:536) @%p7 bra BB9_7;
GPGPU-Sim PTX:    immediate post dominator      @  PC=0x938 (_1.ptx:551) mov.f32 %f26, %f78;
GPGPU-Sim PTX:  6 (potential) branch divergence @  PC=0x928 (_1.ptx:545) bra.uni BB9_8;
GPGPU-Sim PTX:    immediate post dominator      @  PC=0x938 (_1.ptx:551) mov.f32 %f26, %f78;
GPGPU-Sim PTX:  7 (potential) branch divergence @  PC=0x948 (_1.ptx:554) @%p8 bra BB9_10;
GPGPU-Sim PTX:    immediate post dominator      @  PC=0x9a8 (_1.ptx:573) mov.f32 %f27, %f77;
GPGPU-Sim PTX:  8 (potential) branch divergence @  PC=0x988 (_1.ptx:563) @%p9 bra BB9_11;
GPGPU-Sim PTX:    immediate post dominator      @  PC=0x9a8 (_1.ptx:573) mov.f32 %f27, %f77;
GPGPU-Sim PTX:  9 (potential) branch divergence @  PC=0x998 (_1.ptx:567) bra.uni BB9_12;
GPGPU-Sim PTX:    immediate post dominator      @  PC=0x9a8 (_1.ptx:573) mov.f32 %f27, %f77;
GPGPU-Sim PTX: 10 (potential) branch divergence @  PC=0x9d0 (_1.ptx:581) @%p12 bra BB9_1;
GPGPU-Sim PTX:    immediate post dominator      @  PC=0x9d8 (_1.ptx:584) selp.u32 %r14, 1, 0, %p11;
GPGPU-Sim PTX: ... end of reconvergence points for _Z12notShadowRayP4Node6float3S1_f
GPGPU-Sim PTX: ... done pre-decoding instructions for '_Z12notShadowRayP4Node6float3S1_f'.
GPGPU-Sim PTX: allocating stack frame region for .param "func_retval0" from 0x0 to 0x4
GPGPU-Sim PTX: allocating stack frame region for .param "_Z15float2int_pow20f_param_0" from 0x4 to 0x8
GPGPU-Sim PTX: instruction assembly for function '_Z15float2int_pow20f'...   done.
GPGPU-Sim PTX: finding reconvergence points for '_Z15float2int_pow20f'...
GPGPU-Sim PTX: Finding dominators for '_Z15float2int_pow20f'...
GPGPU-Sim PTX: Finding immediate dominators for '_Z15float2int_pow20f'...
GPGPU-Sim PTX: Finding postdominators for '_Z15float2int_pow20f'...
GPGPU-Sim PTX: Finding immediate postdominators for '_Z15float2int_pow20f'...
GPGPU-Sim PTX: pre-decoding instructions for '_Z15float2int_pow20f'...
GPGPU-Sim PTX: reconvergence points for _Z15float2int_pow20f...
GPGPU-Sim PTX: ... end of reconvergence points for _Z15float2int_pow20f
GPGPU-Sim PTX: ... done pre-decoding instructions for '_Z15float2int_pow20f'.
GPGPU-Sim PTX: allocating stack frame region for .param "func_retval0" from 0x0 to 0x4
GPGPU-Sim PTX: allocating stack frame region for .param "_Z15float2int_pow50f_param_0" from 0x4 to 0x8
GPGPU-Sim PTX: instruction assembly for function '_Z15float2int_pow50f'...   done.
GPGPU-Sim PTX: finding reconvergence points for '_Z15float2int_pow50f'...
GPGPU-Sim PTX: Finding dominators for '_Z15float2int_pow50f'...
GPGPU-Sim PTX: Finding immediate dominators for '_Z15float2int_pow50f'...
GPGPU-Sim PTX: Finding postdominators for '_Z15float2int_pow50f'...
GPGPU-Sim PTX: Finding immediate postdominators for '_Z15float2int_pow50f'...
GPGPU-Sim PTX: pre-decoding instructions for '_Z15float2int_pow50f'...
GPGPU-Sim PTX: reconvergence points for _Z15float2int_pow50f...
GPGPU-Sim PTX: ... end of reconvergence points for _Z15float2int_pow50f
GPGPU-Sim PTX: ... done pre-decoding instructions for '_Z15float2int_pow50f'.
GPGPU-Sim PTX: allocating stack frame region for .local "__local_depot12" from 0x0 to 0x50
GPGPU-Sim PTX: instruction assembly for function '_Z6renderPjP4Nodejjff'...   done.
GPGPU-Sim PTX: finding reconvergence points for '_Z6renderPjP4Nodejjff'...
GPGPU-Sim PTX: Finding dominators for '_Z6renderPjP4Nodejjff'...
GPGPU-Sim PTX: Finding immediate dominators for '_Z6renderPjP4Nodejjff'...
GPGPU-Sim PTX: Finding postdominators for '_Z6renderPjP4Nodejjff'...
GPGPU-Sim PTX: Finding immediate postdominators for '_Z6renderPjP4Nodejjff'...
GPGPU-Sim PTX: pre-decoding instructions for '_Z6renderPjP4Nodejjff'...
GPGPU-Sim PTX: reconvergence points for _Z6renderPjP4Nodejjff...
GPGPU-Sim PTX:  1 (potential) branch divergence @  PC=0xd18 (_1.ptx:737) @%p10 bra BB12_2;
GPGPU-Sim PTX:    immediate post dominator      @ 
GPGPU-Sim PTX:  2 (potential) branch divergence @  PC=0xfb0 (_1.ptx:851) @%p12 bra BB12_6;
GPGPU-Sim PTX:    immediate post dominator      @  PC=0x1120 (_1.ptx:932) setp.lt.f32 %p18, %f694, 0f461C4000;
GPGPU-Sim PTX:  3 (potential) branch divergence @  PC=0xff8 (_1.ptx:866) @%p13 bra BB12_9;
GPGPU-Sim PTX:    immediate post dominator      @  PC=0x1120 (_1.ptx:932) setp.lt.f32 %p18, %f694, 0f461C4000;
GPGPU-Sim PTX:  4 (potential) branch divergence @  PC=0x1050 (_1.ptx:885) bra.uni BB12_10;
GPGPU-Sim PTX:    immediate post dominator      @  PC=0x1120 (_1.ptx:932) setp.lt.f32 %p18, %f694, 0f461C4000;
GPGPU-Sim PTX:  5 (potential) branch divergence @  PC=0x10c0 (_1.ptx:909) @%p16 bra BB12_9;
GPGPU-Sim PTX:    immediate post dominator      @  PC=0x1120 (_1.ptx:932) setp.lt.f32 %p18, %f694, 0f461C4000;
GPGPU-Sim PTX:  6 (potential) branch divergence @  PC=0x10e0 (_1.ptx:916) @%p17 bra BB12_9;
GPGPU-Sim PTX:    immediate post dominator      @  PC=0x1120 (_1.ptx:932) setp.lt.f32 %p18, %f694, 0f461C4000;
GPGPU-Sim PTX:  7 (potential) branch divergence @  PC=0x1110 (_1.ptx:925) bra.uni BB12_10;
GPGPU-Sim PTX:    immediate post dominator      @  PC=0x1120 (_1.ptx:932) setp.lt.f32 %p18, %f694, 0f461C4000;
GPGPU-Sim PTX:  8 (potential) branch divergence @  PC=0x1160 (_1.ptx:942) @%p21 bra BB12_13;
GPGPU-Sim PTX:    immediate post dominator      @  PC=0x12d0 (_1.ptx:1023) setp.lt.f32 %p27, %f695, %f68;
GPGPU-Sim PTX:  9 (potential) branch divergence @  PC=0x11a8 (_1.ptx:957) @%p22 bra BB12_16;
GPGPU-Sim PTX:    immediate post dominator      @  PC=0x12d0 (_1.ptx:1023) setp.lt.f32 %p27, %f695, %f68;
GPGPU-Sim PTX: 10 (potential) branch divergence @  PC=0x1200 (_1.ptx:976) bra.uni BB12_17;
GPGPU-Sim PTX:    immediate post dominator      @  PC=0x12d0 (_1.ptx:1023) setp.lt.f32 %p27, %f695, %f68;
GPGPU-Sim PTX: 11 (potential) branch divergence @  PC=0x1270 (_1.ptx:1000) @%p25 bra BB12_16;
GPGPU-Sim PTX:    immediate post dominator      @  PC=0x12d0 (_1.ptx:1023) setp.lt.f32 %p27, %f695, %f68;
GPGPU-Sim PTX: 12 (potential) branch divergence @  PC=0x1290 (_1.ptx:1007) @%p26 bra BB12_16;
GPGPU-Sim PTX:    immediate post dominator      @  PC=0x12d0 (_1.ptx:1023) setp.lt.f32 %p27, %f695, %f68;
GPGPU-Sim PTX: 13 (potential) branch divergence @  PC=0x12c0 (_1.ptx:1016) bra.uni BB12_17;
GPGPU-Sim PTX:    immediate post dominator      @  PC=0x12d0 (_1.ptx:1023) setp.lt.f32 %p27, %f695, %f68;
GPGPU-Sim PTX: 14 (potential) branch divergence @  PC=0x1310 (_1.ptx:1033) @%p30 bra BB12_20;
GPGPU-Sim PTX:    immediate post dominator      @  PC=0x1480 (_1.ptx:1114) setp.lt.f32 %p36, %f696, %f83;
GPGPU-Sim PTX: 15 (potential) branch divergence @  PC=0x1358 (_1.ptx:1048) @%p31 bra BB12_23;
GPGPU-Sim PTX:    immediate post dominator      @  PC=0x1480 (_1.ptx:1114) setp.lt.f32 %p36, %f696, %f83;
GPGPU-Sim PTX: 16 (potential) branch divergence @  PC=0x13b0 (_1.ptx:1067) bra.uni BB12_24;
GPGPU-Sim PTX:    immediate post dominator      @  PC=0x1480 (_1.ptx:1114) setp.lt.f32 %p36, %f696, %f83;
GPGPU-Sim PTX: 17 (potential) branch divergence @  PC=0x1420 (_1.ptx:1091) @%p34 bra BB12_23;
GPGPU-Sim PTX:    immediate post dominator      @  PC=0x1480 (_1.ptx:1114) setp.lt.f32 %p36, %f696, %f83;
GPGPU-Sim PTX: 18 (potential) branch divergence @  PC=0x1440 (_1.ptx:1098) @%p35 bra BB12_23;
GPGPU-Sim PTX:    immediate post dominator      @  PC=0x1480 (_1.ptx:1114) setp.lt.f32 %p36, %f696, %f83;
GPGPU-Sim PTX: 19 (potential) branch divergence @  PC=0x1470 (_1.ptx:1107) bra.uni BB12_24;
GPGPU-Sim PTX:    immediate post dominator      @  PC=0x1480 (_1.ptx:1114) setp.lt.f32 %p36, %f696, %f83;
GPGPU-Sim PTX: 20 (potential) branch divergence @  PC=0x14c0 (_1.ptx:1124) @%p39 bra BB12_27;
GPGPU-Sim PTX:    immediate post dominator      @  PC=0x1630 (_1.ptx:1205) setp.lt.f32 %p45, %f697, %f98;
GPGPU-Sim PTX: 21 (potential) branch divergence @  PC=0x1508 (_1.ptx:1139) @%p40 bra BB12_30;
GPGPU-Sim PTX:    immediate post dominator      @  PC=0x1630 (_1.ptx:1205) setp.lt.f32 %p45, %f697, %f98;
GPGPU-Sim PTX: 22 (potential) branch divergence @  PC=0x1560 (_1.ptx:1158) bra.uni BB12_31;
GPGPU-Sim PTX:    immediate post dominator      @  PC=0x1630 (_1.ptx:1205) setp.lt.f32 %p45, %f697, %f98;
GPGPU-Sim PTX: 23 (potential) branch divergence @  PC=0x15d0 (_1.ptx:1182) @%p43 bra BB12_30;
GPGPU-Sim PTX:    immediate post dominator      @  PC=0x1630 (_1.ptx:1205) setp.lt.f32 %p45, %f697, %f98;
GPGPU-Sim PTX: 24 (potential) branch divergence @  PC=0x15f0 (_1.ptx:1189) @%p44 bra BB12_30;
GPGPU-Sim PTX:    immediate post dominator      @  PC=0x1630 (_1.ptx:1205) setp.lt.f32 %p45, %f697, %f98;
GPGPU-Sim PTX: 25 (potential) branch divergence @  PC=0x1620 (_1.ptx:1198) bra.uni BB12_31;
GPGPU-Sim PTX:    immediate post dominator      @  PC=0x1630 (_1.ptx:1205) setp.lt.f32 %p45, %f697, %f98;
GPGPU-Sim PTX: 26 (potential) branch divergence @  PC=0x1670 (_1.ptx:1214) @%p50 bra BB12_32;
GPGPU-Sim PTX:    immediate post dominator      @  PC=0x22f8 (_1.ptx:1857) add.s32 %r130, %r130, 1;
GPGPU-Sim PTX: 27 (potential) branch divergence @  PC=0x1678 (_1.ptx:1215) bra.uni BB12_75;
GPGPU-Sim PTX:    immediate post dominator      @  PC=0x22f8 (_1.ptx:1857) add.s32 %r130, %r130, 1;
GPGPU-Sim PTX: 28 (potential) branch divergence @  PC=0x17b0 (_1.ptx:1267) @%p51 bra BB12_34;
GPGPU-Sim PTX:    immediate post dominator      @  PC=0x1830 (_1.ptx:1293) mov.f32 %f139, %f706;
GPGPU-Sim PTX: 29 (potential) branch divergence @  PC=0x17d8 (_1.ptx:1275) bra.uni BB12_35;
GPGPU-Sim PTX:    immediate post dominator      @  PC=0x1830 (_1.ptx:1293) mov.f32 %f139, %f706;
GPGPU-Sim PTX: 30 (potential) branch divergence @  PC=0x1868 (_1.ptx:1301) @%p52 bra BB12_37;
GPGPU-Sim PTX:    immediate post dominator      @  PC=0x18c0 (_1.ptx:1318) mov.f32 %f148, %f705;
GPGPU-Sim PTX: 31 (potential) branch divergence @  PC=0x1888 (_1.ptx:1306) bra.uni BB12_38;
GPGPU-Sim PTX:    immediate post dominator      @  PC=0x18c0 (_1.ptx:1318) mov.f32 %f148, %f705;
GPGPU-Sim PTX: 32 (potential) branch divergence @  PC=0x1930 (_1.ptx:1334) @%p53 bra BB12_74;
GPGPU-Sim PTX:    immediate post dominator      @  PC=0x2248 (_1.ptx:1828) add.f32 %f531, %f137, %f137;
GPGPU-Sim PTX: 33 (potential) branch divergence @  PC=0x1998 (_1.ptx:1355) @%p54 bra BB12_43;
GPGPU-Sim PTX:    immediate post dominator      @  PC=0x1b08 (_1.ptx:1435) mov.f32 %f169, %f709;
GPGPU-Sim PTX: 34 (potential) branch divergence @  PC=0x19e0 (_1.ptx:1370) @%p55 bra BB12_46;
GPGPU-Sim PTX:    immediate post dominator      @  PC=0x1b08 (_1.ptx:1435) mov.f32 %f169, %f709;
GPGPU-Sim PTX: 35 (potential) branch divergence @  PC=0x1a38 (_1.ptx:1389) bra.uni BB12_47;
GPGPU-Sim PTX:    immediate post dominator      @  PC=0x1b08 (_1.ptx:1435) mov.f32 %f169, %f709;
GPGPU-Sim PTX: 36 (potential) branch divergence @  PC=0x1aa8 (_1.ptx:1413) @%p58 bra BB12_46;
GPGPU-Sim PTX:    immediate post dominator      @  PC=0x1b08 (_1.ptx:1435) mov.f32 %f169, %f709;
GPGPU-Sim PTX: 37 (potential) branch divergence @  PC=0x1ac8 (_1.ptx:1420) @%p59 bra BB12_46;
GPGPU-Sim PTX:    immediate post dominator      @  PC=0x1b08 (_1.ptx:1435) mov.f32 %f169, %f709;
GPGPU-Sim PTX: 38 (potential) branch divergence @  PC=0x1af8 (_1.ptx:1429) bra.uni BB12_47;
GPGPU-Sim PTX:    immediate post dominator      @  PC=0x1b08 (_1.ptx:1435) mov.f32 %f169, %f709;
GPGPU-Sim PTX: 39 (potential) branch divergence @  PC=0x1b18 (_1.ptx:1438) @%p60 bra BB12_49;
GPGPU-Sim PTX:    immediate post dominator      @  PC=0x1b78 (_1.ptx:1457) mov.f32 %f170, %f708;
GPGPU-Sim PTX: 40 (potential) branch divergence @  PC=0x1b58 (_1.ptx:1447) @%p61 bra BB12_50;
GPGPU-Sim PTX:    immediate post dominator      @  PC=0x1b78 (_1.ptx:1457) mov.f32 %f170, %f708;
GPGPU-Sim PTX: 41 (potential) branch divergence @  PC=0x1b68 (_1.ptx:1451) bra.uni BB12_51;
GPGPU-Sim PTX:    immediate post dominator      @  PC=0x1b78 (_1.ptx:1457) mov.f32 %f170, %f708;
GPGPU-Sim PTX: 42 (potential) branch divergence @  PC=0x1ba0 (_1.ptx:1465) @%p64 bra BB12_40;
GPGPU-Sim PTX:    immediate post dominator      @  PC=0x1ba8 (_1.ptx:1468) setp.neu.f32 %p65, %f170, 0f00000000;
GPGPU-Sim PTX: 43 (potential) branch divergence @  PC=0x1bb0 (_1.ptx:1469) @%p65 bra BB12_74;
GPGPU-Sim PTX:    immediate post dominator      @  PC=0x2248 (_1.ptx:1828) add.f32 %f531, %f137, %f137;
GPGPU-Sim PTX: 44 (potential) branch divergence @  PC=0x1cd0 (_1.ptx:1516) @%p66 bra BB12_72;
GPGPU-Sim PTX:    immediate post dominator      @  PC=0x2200 (_1.ptx:1812) mov.f32 %f187, %f711;
GPGPU-Sim PTX: 45 (potential) branch divergence @  PC=0x1ce8 (_1.ptx:1522) @%p67 bra BB12_71;
GPGPU-Sim PTX:    immediate post dominator      @  PC=0x2200 (_1.ptx:1812) mov.f32 %f187, %f711;
GPGPU-Sim PTX: 46 (potential) branch divergence @  PC=0x1d00 (_1.ptx:1528) @%p68 bra BB12_71;
GPGPU-Sim PTX:    immediate post dominator      @  PC=0x2200 (_1.ptx:1812) mov.f32 %f187, %f711;
GPGPU-Sim PTX: 47 (potential) branch divergence @  PC=0x1d10 (_1.ptx:1532) @%p69 bra BB12_70;
GPGPU-Sim PTX:    immediate post dominator      @  PC=0x2200 (_1.ptx:1812) mov.f32 %f187, %f711;
GPGPU-Sim PTX: 48 (potential) branch divergence @  PC=0x1d20 (_1.ptx:1537) @%p70 bra BB12_68;
GPGPU-Sim PTX:    immediate post dominator      @  PC=0x2200 (_1.ptx:1812) mov.f32 %f187, %f711;
GPGPU-Sim PTX: 49 (potential) branch divergence @  PC=0x1d50 (_1.ptx:1549) @%p71 bra BB12_67;
GPGPU-Sim PTX:    immediate post dominator      @  PC=0x2200 (_1.ptx:1812) mov.f32 %f187, %f711;
GPGPU-Sim PTX: 50 (potential) branch divergence @  PC=0x1d68 (_1.ptx:1554) @%p72 bra BB12_66;
GPGPU-Sim PTX:    immediate post dominator      @  PC=0x2200 (_1.ptx:1812) mov.f32 %f187, %f711;
GPGPU-Sim PTX: 51 (potential) branch divergence @  PC=0x1d80 (_1.ptx:1559) @%p73 bra BB12_62;
GPGPU-Sim PTX:    immediate post dominator      @  PC=0x2200 (_1.ptx:1812) mov.f32 %f187, %f711;
GPGPU-Sim PTX: 52 (potential) branch divergence @  PC=0x1d98 (_1.ptx:1565) @%p74 bra BB12_65;
GPGPU-Sim PTX:    immediate post dominator      @  PC=0x2200 (_1.ptx:1812) mov.f32 %f187, %f711;
GPGPU-Sim PTX: 53 (potential) branch divergence @  PC=0x20d8 (_1.ptx:1740) @%p81 bra BB12_63;
GPGPU-Sim PTX:    immediate post dominator      @  PC=0x20f0 (_1.ptx:1749) mov.b32 %r87, %f710;
GPGPU-Sim PTX: 54 (potential) branch divergence @  PC=0x20e0 (_1.ptx:1741) bra.uni BB12_64;
GPGPU-Sim PTX:    immediate post dominator      @  PC=0x20f0 (_1.ptx:1749) mov.b32 %r87, %f710;
GPGPU-Sim PTX: 55 (potential) branch divergence @  PC=0x2120 (_1.ptx:1757) bra.uni BB12_73;
GPGPU-Sim PTX:    immediate post dominator      @  PC=0x2200 (_1.ptx:1812) mov.f32 %f187, %f711;
GPGPU-Sim PTX: 56 (potential) branch divergence @  PC=0x2138 (_1.ptx:1763) bra.uni BB12_73;
GPGPU-Sim PTX:    immediate post dominator      @  PC=0x2200 (_1.ptx:1812) mov.f32 %f187, %f711;
GPGPU-Sim PTX: 57 (potential) branch divergence @  PC=0x2170 (_1.ptx:1776) bra.uni BB12_73;
GPGPU-Sim PTX:    immediate post dominator      @  PC=0x2200 (_1.ptx:1812) mov.f32 %f187, %f711;
GPGPU-Sim PTX: 58 (potential) branch divergence @  PC=0x2190 (_1.ptx:1783) bra.uni BB12_73;
GPGPU-Sim PTX:    immediate post dominator      @  PC=0x2200 (_1.ptx:1812) mov.f32 %f187, %f711;
GPGPU-Sim PTX: 59 (potential) branch divergence @  PC=0x21a0 (_1.ptx:1788) @%p83 bra BB12_72;
GPGPU-Sim PTX:    immediate post dominator      @  PC=0x2200 (_1.ptx:1812) mov.f32 %f187, %f711;
GPGPU-Sim PTX: 60 (potential) branch divergence @  PC=0x21c8 (_1.ptx:1796) bra.uni BB12_73;
GPGPU-Sim PTX:    immediate post dominator      @  PC=0x2200 (_1.ptx:1812) mov.f32 %f187, %f711;
GPGPU-Sim PTX: 61 (potential) branch divergence @  PC=0x21d8 (_1.ptx:1800) bra.uni BB12_73;
GPGPU-Sim PTX:    immediate post dominator      @  PC=0x2200 (_1.ptx:1812) mov.f32 %f187, %f711;
GPGPU-Sim PTX: 62 (potential) branch divergence @  PC=0x21f0 (_1.ptx:1806) bra.uni BB12_73;
GPGPU-Sim PTX:    immediate post dominator      @  PC=0x2200 (_1.ptx:1812) mov.f32 %f187, %f711;
GPGPU-Sim PTX: 63 (potential) branch divergence @  PC=0x2318 (_1.ptx:1863) @%p87 bra BB12_3;
GPGPU-Sim PTX:    immediate post dominator      @  PC=0x2320 (_1.ptx:1865) add.s32 %r94, %r132, -1;
GPGPU-Sim PTX: 64 (potential) branch divergence @  PC=0x2330 (_1.ptx:1868) @%p88 bra BB12_79;
GPGPU-Sim PTX:    immediate post dominator      @  PC=0x23b8 (_1.ptx:1893) ld.local.v4.f32 {%f571, %f572, %f573, %f574}, [%rl3];
GPGPU-Sim PTX: 65 (potential) branch divergence @  PC=0x23b0 (_1.ptx:1889) @%p89 bra BB12_78;
GPGPU-Sim PTX:    immediate post dominator      @  PC=0x23b8 (_1.ptx:1893) ld.local.v4.f32 {%f571, %f572, %f573, %f574}, [%rl3];
GPGPU-Sim PTX: ... end of reconvergence points for _Z6renderPjP4Nodejjff
GPGPU-Sim PTX: ... done pre-decoding instructions for '_Z6renderPjP4Nodejjff'.
GPGPU-Sim PTX: allocating stack frame region for .param "_ZN4dim3C1Ejjj_param_0" from 0x0 to 0x8
GPGPU-Sim PTX: allocating stack frame region for .param "_ZN4dim3C1Ejjj_param_1" from 0x8 to 0xc
GPGPU-Sim PTX: allocating stack frame region for .param "_ZN4dim3C1Ejjj_param_2" from 0xc to 0x10
GPGPU-Sim PTX: allocating stack frame region for .param "_ZN4dim3C1Ejjj_param_3" from 0x10 to 0x14
GPGPU-Sim PTX: instruction assembly for function '_ZN4dim3C1Ejjj'...   done.
GPGPU-Sim PTX: finding reconvergence points for '_ZN4dim3C1Ejjj'...
GPGPU-Sim PTX: Finding dominators for '_ZN4dim3C1Ejjj'...
GPGPU-Sim PTX: Finding immediate dominators for '_ZN4dim3C1Ejjj'...
GPGPU-Sim PTX: Finding postdominators for '_ZN4dim3C1Ejjj'...
GPGPU-Sim PTX: Finding immediate postdominators for '_ZN4dim3C1Ejjj'...
GPGPU-Sim PTX: pre-decoding instructions for '_ZN4dim3C1Ejjj'...
GPGPU-Sim PTX: reconvergence points for _ZN4dim3C1Ejjj...
GPGPU-Sim PTX: ... end of reconvergence points for _ZN4dim3C1Ejjj
GPGPU-Sim PTX: ... done pre-decoding instructions for '_ZN4dim3C1Ejjj'.
GPGPU-Sim PTX: finished parsing EMBEDDED .ptx file _1.ptx
Adding _cuobjdump_2.ptx with cubin handle 1
GPGPU-Sim PTX: extracting embedded .ptx to temporary file "_ptx_HeoAA3"
Running: cat _ptx_HeoAA3 | sed 's/.version 1.5/.version 1.4/' | sed 's/, texmode_independent//' | sed 's/\(\.extern \.const\[1\] .b8 \w\+\)\[\]/\1\[1\]/' | sed 's/const\[.\]/const\[0\]/g' > _ptx2_H69EgY
GPGPU-Sim PTX: generating ptxinfo using "$CUDA_INSTALL_PATH/bin/ptxas --gpu-name=sm_20 -v _ptx2_H69EgY --output-file  /dev/null 2> _ptx_HeoAA3info"
GPGPU-Sim PTX: Kernel '_Z6renderPjP4Nodejjff' : regs=43, lmem=0, smem=0, cmem=324
GPGPU-Sim PTX: removing ptxinfo using "rm -f _ptx_HeoAA3 _ptx2_H69EgY _ptx_HeoAA3info"
GPGPU-Sim PTX: loading globals with explicit initializers... 
GPGPU-Sim PTX: finished loading globals (0 bytes total).
GPGPU-Sim PTX: loading constants with explicit initializers...  done.
GPGPU-Sim PTX: __cudaRegisterVar: hostVar = 0x647740; deviceAddress = MView; deviceName = MView
GPGPU-Sim PTX: __cudaRegisterVar: Registering const memory space of 48 bytes
GPGPU-Sim PTX registering constant MView (48 bytes) to name mapping
GPGPU-Sim PTX: __cudaRegisterVar: hostVar = 0x647780; deviceAddress = cnode; deviceName = cnode
GPGPU-Sim PTX: __cudaRegisterVar: Registering const memory space of 160 bytes
GPGPU-Sim PTX registering constant cnode (160 bytes) to name mapping
GPGPU-Sim PTX: cudaMemcpyToSymbol: symbol = 0x647780
GPGPU-Sim PTX: starting gpgpu_ptx_sim_memcpy_symbol with hostVar 0x0x647780
GPGPU-Sim PTX: gpgpu_ptx_sim_memcpy_symbol: Found PTX symbol w/ hostVar=0x647780
GPGPU-Sim PTX: gpgpu_ptx_sim_memcpy_symbol: copying const memory 160 bytes  to  symbol cnode+0 @0x180 ...
GPGPU-Sim PTX: cudaMemcpyToSymbol: symbol = 0x647740
GPGPU-Sim PTX: starting gpgpu_ptx_sim_memcpy_symbol with hostVar 0x0x647740
GPGPU-Sim PTX: gpgpu_ptx_sim_memcpy_symbol: Found PTX symbol w/ hostVar=0x647740
GPGPU-Sim PTX: gpgpu_ptx_sim_memcpy_symbol: copying const memory 48 bytes  to  symbol MView+0 @0x100 ...

GPGPU-Sim PTX: cudaLaunch for 0x0x40ad70 (mode=performance simulation) on stream 0
GPGPU-Sim PTX: pushing kernel '_Z6renderPjP4Nodejjff' to stream 0, gridDim= (16,32,1) blockDim = (16,8,1) 
kernel '_Z6renderPjP4Nodejjff' transfer to GPU hardware scheduler
GPGPU-Sim uArch: Shader 1 bind to kernel 1 '_Z6renderPjP4Nodejjff'
GPGPU-Sim uArch: CTA/core = 5, limited by: regs
GPGPU-Sim uArch: core:  1, cta: 0 initialized @(1,0)
GPGPU-Sim uArch: Shader 2 bind to kernel 1 '_Z6renderPjP4Nodejjff'
GPGPU-Sim uArch: core:  2, cta: 0 initialized @(1,0)
GPGPU-Sim uArch: Shader 3 bind to kernel 1 '_Z6renderPjP4Nodejjff'
GPGPU-Sim uArch: core:  3, cta: 0 initialized @(1,0)
GPGPU-Sim uArch: Shader 4 bind to kernel 1 '_Z6renderPjP4Nodejjff'
GPGPU-Sim uArch: core:  4, cta: 0 initialized @(1,0)
GPGPU-Sim uArch: Shader 5 bind to kernel 1 '_Z6renderPjP4Nodejjff'
GPGPU-Sim uArch: core:  5, cta: 0 initialized @(1,0)
GPGPU-Sim uArch: Shader 6 bind to kernel 1 '_Z6renderPjP4Nodejjff'
GPGPU-Sim uArch: core:  6, cta: 0 initialized @(1,0)
GPGPU-Sim uArch: Shader 7 bind to kernel 1 '_Z6renderPjP4Nodejjff'
GPGPU-Sim uArch: core:  7, cta: 0 initialized @(1,0)
GPGPU-Sim uArch: Shader 8 bind to kernel 1 '_Z6renderPjP4Nodejjff'
GPGPU-Sim uArch: core:  8, cta: 0 initialized @(1,0)
GPGPU-Sim uArch: Shader 9 bind to kernel 1 '_Z6renderPjP4Nodejjff'
GPGPU-Sim uArch: core:  9, cta: 0 initialized @(1,0)
GPGPU-Sim uArch: Shader 10 bind to kernel 1 '_Z6renderPjP4Nodejjff'
GPGPU-Sim uArch: core: 10, cta: 0 initialized @(1,0)
GPGPU-Sim uArch: Shader 11 bind to kernel 1 '_Z6renderPjP4Nodejjff'
GPGPU-Sim uArch: core: 11, cta: 0 initialized @(1,0)
GPGPU-Sim uArch: Shader 12 bind to kernel 1 '_Z6renderPjP4Nodejjff'
GPGPU-Sim uArch: core: 12, cta: 0 initialized @(1,0)
GPGPU-Sim uArch: Shader 13 bind to kernel 1 '_Z6renderPjP4Nodejjff'
GPGPU-Sim uArch: core: 13, cta: 0 initialized @(1,0)
GPGPU-Sim uArch: Shader 14 bind to kernel 1 '_Z6renderPjP4Nodejjff'
GPGPU-Sim uArch: core: 14, cta: 0 initialized @(1,0)
GPGPU-Sim uArch: Shader 15 bind to kernel 1 '_Z6renderPjP4Nodejjff'
GPGPU-Sim uArch: core: 15, cta: 0 initialized @(1,0)
GPGPU-Sim uArch: Shader 16 bind to kernel 1 '_Z6renderPjP4Nodejjff'
GPGPU-Sim uArch: core: 16, cta: 0 initialized @(1,0)
GPGPU-Sim uArch: Shader 17 bind to kernel 1 '_Z6renderPjP4Nodejjff'
GPGPU-Sim uArch: core: 17, cta: 0 initialized @(1,0)
GPGPU-Sim uArch: Shader 18 bind to kernel 1 '_Z6renderPjP4Nodejjff'
GPGPU-Sim uArch: core: 18, cta: 0 initialized @(1,0)
GPGPU-Sim uArch: Shader 19 bind to kernel 1 '_Z6renderPjP4Nodejjff'
GPGPU-Sim uArch: core: 19, cta: 0 initialized @(1,0)
GPGPU-Sim uArch: Shader 20 bind to kernel 1 '_Z6renderPjP4Nodejjff'
GPGPU-Sim uArch: core: 20, cta: 0 initialized @(1,0)
GPGPU-Sim uArch: Shader 21 bind to kernel 1 '_Z6renderPjP4Nodejjff'
GPGPU-Sim uArch: core: 21, cta: 0 initialized @(1,0)
GPGPU-Sim uArch: Shader 22 bind to kernel 1 '_Z6renderPjP4Nodejjff'
GPGPU-Sim uArch: core: 22, cta: 0 initialized @(1,0)
GPGPU-Sim uArch: Shader 23 bind to kernel 1 '_Z6renderPjP4Nodejjff'
GPGPU-Sim uArch: core: 23, cta: 0 initialized @(1,0)
GPGPU-Sim uArch: Shader 24 bind to kernel 1 '_Z6renderPjP4Nodejjff'
GPGPU-Sim uArch: core: 24, cta: 0 initialized @(1,0)
GPGPU-Sim uArch: Shader 25 bind to kernel 1 '_Z6renderPjP4Nodejjff'
GPGPU-Sim uArch: core: 25, cta: 0 initialized @(1,0)
GPGPU-Sim uArch: Shader 26 bind to kernel 1 '_Z6renderPjP4Nodejjff'
GPGPU-Sim uArch: core: 26, cta: 0 initialized @(1,0)
GPGPU-Sim uArch: Shader 27 bind to kernel 1 '_Z6renderPjP4Nodejjff'
GPGPU-Sim uArch: core: 27, cta: 0 initialized @(1,0)
GPGPU-Sim uArch: Shader 28 bind to kernel 1 '_Z6renderPjP4Nodejjff'
GPGPU-Sim uArch: core: 28, cta: 0 initialized @(1,0)
GPGPU-Sim uArch: Shader 29 bind to kernel 1 '_Z6renderPjP4Nodejjff'
GPGPU-Sim uArch: core: 29, cta: 0 initialized @(1,0)
GPGPU-Sim uArch: Shader 30 bind to kernel 1 '_Z6renderPjP4Nodejjff'
GPGPU-Sim uArch: core: 30, cta: 0 initialized @(1,0)
GPGPU-Sim uArch: Shader 31 bind to kernel 1 '_Z6renderPjP4Nodejjff'
GPGPU-Sim uArch: core: 31, cta: 0 initialized @(1,0)
GPGPU-Sim uArch: Shader 32 bind to kernel 1 '_Z6renderPjP4Nodejjff'
GPGPU-Sim uArch: core: 32, cta: 0 initialized @(1,0)
GPGPU-Sim uArch: Shader 33 bind to kernel 1 '_Z6renderPjP4Nodejjff'
GPGPU-Sim uArch: core: 33, cta: 0 initialized @(1,0)
GPGPU-Sim uArch: Shader 34 bind to kernel 1 '_Z6renderPjP4Nodejjff'
GPGPU-Sim uArch: core: 34, cta: 0 initialized @(1,0)
GPGPU-Sim uArch: Shader 35 bind to kernel 1 '_Z6renderPjP4Nodejjff'
GPGPU-Sim uArch: core: 35, cta: 0 initialized @(1,0)
GPGPU-Sim uArch: Shader 36 bind to kernel 1 '_Z6renderPjP4Nodejjff'
GPGPU-Sim uArch: core: 36, cta: 0 initialized @(1,0)
GPGPU-Sim uArch: Shader 37 bind to kernel 1 '_Z6renderPjP4Nodejjff'
GPGPU-Sim uArch: core: 37, cta: 0 initialized @(1,0)
GPGPU-Sim uArch: Shader 38 bind to kernel 1 '_Z6renderPjP4Nodejjff'
GPGPU-Sim uArch: core: 38, cta: 0 initialized @(1,0)
GPGPU-Sim uArch: Shader 39 bind to kernel 1 '_Z6renderPjP4Nodejjff'
GPGPU-Sim uArch: core: 39, cta: 0 initialized @(1,0)
GPGPU-Sim uArch: Shader 40 bind to kernel 1 '_Z6renderPjP4Nodejjff'
GPGPU-Sim uArch: core: 40, cta: 0 initialized @(1,0)
GPGPU-Sim uArch: Shader 41 bind to kernel 1 '_Z6renderPjP4Nodejjff'
GPGPU-Sim uArch: core: 41, cta: 0 initialized @(1,0)
GPGPU-Sim uArch: Shader 42 bind to kernel 1 '_Z6renderPjP4Nodejjff'
GPGPU-Sim uArch: core: 42, cta: 0 initialized @(1,0)
GPGPU-Sim uArch: Shader 43 bind to kernel 1 '_Z6renderPjP4Nodejjff'
GPGPU-Sim uArch: core: 43, cta: 0 initialized @(1,0)
GPGPU-Sim uArch: Shader 44 bind to kernel 1 '_Z6renderPjP4Nodejjff'
GPGPU-Sim uArch: core: 44, cta: 0 initialized @(1,0)
GPGPU-Sim uArch: Shader 45 bind to kernel 1 '_Z6renderPjP4Nodejjff'
GPGPU-Sim uArch: core: 45, cta: 0 initialized @(1,0)
GPGPU-Sim uArch: Shader 46 bind to kernel 1 '_Z6renderPjP4Nodejjff'
GPGPU-Sim uArch: core: 46, cta: 0 initialized @(1,0)
GPGPU-Sim uArch: Shader 47 bind to kernel 1 '_Z6renderPjP4Nodejjff'
GPGPU-Sim uArch: core: 47, cta: 0 initialized @(1,0)
GPGPU-Sim uArch: Shader 48 bind to kernel 1 '_Z6renderPjP4Nodejjff'
GPGPU-Sim uArch: core: 48, cta: 0 initialized @(1,0)
GPGPU-Sim uArch: Shader 49 bind to kernel 1 '_Z6renderPjP4Nodejjff'
GPGPU-Sim uArch: core: 49, cta: 0 initialized @(1,0)
GPGPU-Sim uArch: Shader 50 bind to kernel 1 '_Z6renderPjP4Nodejjff'
GPGPU-Sim uArch: core: 50, cta: 0 initialized @(1,0)
GPGPU-Sim uArch: Shader 51 bind to kernel 1 '_Z6renderPjP4Nodejjff'
GPGPU-Sim uArch: core: 51, cta: 0 initialized @(1,0)
GPGPU-Sim uArch: Shader 52 bind to kernel 1 '_Z6renderPjP4Nodejjff'
GPGPU-Sim uArch: core: 52, cta: 0 initialized @(1,0)
GPGPU-Sim uArch: Shader 53 bind to kernel 1 '_Z6renderPjP4Nodejjff'
GPGPU-Sim uArch: core: 53, cta: 0 initialized @(1,0)
GPGPU-Sim uArch: Shader 54 bind to kernel 1 '_Z6renderPjP4Nodejjff'
GPGPU-Sim uArch: core: 54, cta: 0 initialized @(1,0)
GPGPU-Sim uArch: Shader 55 bind to kernel 1 '_Z6renderPjP4Nodejjff'
GPGPU-Sim uArch: core: 55, cta: 0 initialized @(1,0)
GPGPU-Sim uArch: Shader 56 bind to kernel 1 '_Z6renderPjP4Nodejjff'
GPGPU-Sim uArch: core: 56, cta: 0 initialized @(1,0)
GPGPU-Sim uArch: Shader 57 bind to kernel 1 '_Z6renderPjP4Nodejjff'
GPGPU-Sim uArch: core: 57, cta: 0 initialized @(1,0)
GPGPU-Sim uArch: Shader 58 bind to kernel 1 '_Z6renderPjP4Nodejjff'
GPGPU-Sim uArch: core: 58, cta: 0 initialized @(1,0)
GPGPU-Sim uArch: Shader 59 bind to kernel 1 '_Z6renderPjP4Nodejjff'
GPGPU-Sim uArch: core: 59, cta: 0 initialized @(1,0)
GPGPU-Sim uArch: Shader 60 bind to kernel 1 '_Z6renderPjP4Nodejjff'
GPGPU-Sim uArch: core: 60, cta: 0 initialized @(1,0)
GPGPU-Sim uArch: Shader 61 bind to kernel 1 '_Z6renderPjP4Nodejjff'
GPGPU-Sim uArch: core: 61, cta: 0 initialized @(1,0)
GPGPU-Sim uArch: Shader 62 bind to kernel 1 '_Z6renderPjP4Nodejjff'
GPGPU-Sim uArch: core: 62, cta: 0 initialized @(1,0)
GPGPU-Sim uArch: Shader 63 bind to kernel 1 '_Z6renderPjP4Nodejjff'
GPGPU-Sim uArch: core: 63, cta: 0 initialized @(1,0)
GPGPU-Sim uArch: Shader 64 bind to kernel 1 '_Z6renderPjP4Nodejjff'
GPGPU-Sim uArch: core: 64, cta: 0 initialized @(1,0)
GPGPU-Sim uArch: Shader 65 bind to kernel 1 '_Z6renderPjP4Nodejjff'
GPGPU-Sim uArch: core: 65, cta: 0 initialized @(1,0)
GPGPU-Sim uArch: Shader 66 bind to kernel 1 '_Z6renderPjP4Nodejjff'
GPGPU-Sim uArch: core: 66, cta: 0 initialized @(1,0)
GPGPU-Sim uArch: Shader 67 bind to kernel 1 '_Z6renderPjP4Nodejjff'
GPGPU-Sim uArch: core: 67, cta: 0 initialized @(1,0)
GPGPU-Sim uArch: Shader 68 bind to kernel 1 '_Z6renderPjP4Nodejjff'
GPGPU-Sim uArch: core: 68, cta: 0 initialized @(1,0)
GPGPU-Sim uArch: Shader 69 bind to kernel 1 '_Z6renderPjP4Nodejjff'
GPGPU-Sim uArch: core: 69, cta: 0 initialized @(1,0)
GPGPU-Sim uArch: Shader 70 bind to kernel 1 '_Z6renderPjP4Nodejjff'
GPGPU-Sim uArch: core: 70, cta: 0 initialized @(1,0)
GPGPU-Sim uArch: Shader 71 bind to kernel 1 '_Z6renderPjP4Nodejjff'
GPGPU-Sim uArch: core: 71, cta: 0 initialized @(1,0)
GPGPU-Sim uArch: Shader 72 bind to kernel 1 '_Z6renderPjP4Nodejjff'
GPGPU-Sim uArch: core: 72, cta: 0 initialized @(1,0)
GPGPU-Sim uArch: Shader 73 bind to kernel 1 '_Z6renderPjP4Nodejjff'
GPGPU-Sim uArch: core: 73, cta: 0 initialized @(1,0)
GPGPU-Sim uArch: Shader 74 bind to kernel 1 '_Z6renderPjP4Nodejjff'
GPGPU-Sim uArch: core: 74, cta: 0 initialized @(1,0)
GPGPU-Sim uArch: Shader 75 bind to kernel 1 '_Z6renderPjP4Nodejjff'
GPGPU-Sim uArch: core: 75, cta: 0 initialized @(1,0)
GPGPU-Sim uArch: Shader 76 bind to kernel 1 '_Z6renderPjP4Nodejjff'
GPGPU-Sim uArch: core: 76, cta: 0 initialized @(1,0)
GPGPU-Sim uArch: Shader 77 bind to kernel 1 '_Z6renderPjP4Nodejjff'
GPGPU-Sim uArch: core: 77, cta: 0 initialized @(1,0)
GPGPU-Sim uArch: Shader 78 bind to kernel 1 '_Z6renderPjP4Nodejjff'
GPGPU-Sim uArch: core: 78, cta: 0 initialized @(1,0)
GPGPU-Sim uArch: Shader 79 bind to kernel 1 '_Z6renderPjP4Nodejjff'
GPGPU-Sim uArch: core: 79, cta: 0 initialized @(1,0)
GPGPU-Sim uArch: Shader 0 bind to kernel 1 '_Z6renderPjP4Nodejjff'
GPGPU-Sim uArch: core:  0, cta: 0 initialized @(1,0)
GPGPU-Sim uArch: core:  1, cta: 1 initialized @(2,0)
GPGPU-Sim uArch: core:  2, cta: 1 initialized @(2,0)
GPGPU-Sim uArch: core:  3, cta: 1 initialized @(2,0)
GPGPU-Sim uArch: core:  4, cta: 1 initialized @(2,0)
GPGPU-Sim uArch: core:  5, cta: 1 initialized @(2,0)
GPGPU-Sim uArch: core:  6, cta: 1 initialized @(2,0)
GPGPU-Sim uArch: core:  7, cta: 1 initialized @(2,0)
GPGPU-Sim uArch: core:  8, cta: 1 initialized @(2,0)
GPGPU-Sim uArch: core:  9, cta: 1 initialized @(2,0)
GPGPU-Sim uArch: core: 10, cta: 1 initialized @(2,0)
GPGPU-Sim uArch: core: 11, cta: 1 initialized @(2,0)
GPGPU-Sim uArch: core: 12, cta: 1 initialized @(2,0)
GPGPU-Sim uArch: core: 13, cta: 1 initialized @(2,0)
GPGPU-Sim uArch: core: 14, cta: 1 initialized @(2,0)
GPGPU-Sim uArch: core: 15, cta: 1 initialized @(2,0)
GPGPU-Sim uArch: core: 16, cta: 1 initialized @(2,0)
GPGPU-Sim uArch: core: 17, cta: 1 initialized @(2,0)
GPGPU-Sim uArch: core: 18, cta: 1 initialized @(2,0)
GPGPU-Sim uArch: core: 19, cta: 1 initialized @(2,0)
GPGPU-Sim uArch: core: 20, cta: 1 initialized @(2,0)
GPGPU-Sim uArch: core: 21, cta: 1 initialized @(2,0)
GPGPU-Sim uArch: core: 22, cta: 1 initialized @(2,0)
GPGPU-Sim uArch: core: 23, cta: 1 initialized @(2,0)
GPGPU-Sim uArch: core: 24, cta: 1 initialized @(2,0)
GPGPU-Sim uArch: core: 25, cta: 1 initialized @(2,0)
GPGPU-Sim uArch: core: 26, cta: 1 initialized @(2,0)
GPGPU-Sim uArch: core: 27, cta: 1 initialized @(2,0)
GPGPU-Sim uArch: core: 28, cta: 1 initialized @(2,0)
GPGPU-Sim uArch: core: 29, cta: 1 initialized @(2,0)
GPGPU-Sim uArch: core: 30, cta: 1 initialized @(2,0)
GPGPU-Sim uArch: core: 31, cta: 1 initialized @(2,0)
GPGPU-Sim uArch: core: 32, cta: 1 initialized @(2,0)
GPGPU-Sim uArch: core: 33, cta: 1 initialized @(2,0)
GPGPU-Sim uArch: core: 34, cta: 1 initialized @(2,0)
GPGPU-Sim uArch: core: 35, cta: 1 initialized @(2,0)
GPGPU-Sim uArch: core: 36, cta: 1 initialized @(2,0)
GPGPU-Sim uArch: core: 37, cta: 1 initialized @(2,0)
GPGPU-Sim uArch: core: 38, cta: 1 initialized @(2,0)
GPGPU-Sim uArch: core: 39, cta: 1 initialized @(2,0)
GPGPU-Sim uArch: core: 40, cta: 1 initialized @(2,0)
GPGPU-Sim uArch: core: 41, cta: 1 initialized @(2,0)
GPGPU-Sim uArch: core: 42, cta: 1 initialized @(2,0)
GPGPU-Sim uArch: core: 43, cta: 1 initialized @(2,0)
GPGPU-Sim uArch: core: 44, cta: 1 initialized @(2,0)
GPGPU-Sim uArch: core: 45, cta: 1 initialized @(2,0)
GPGPU-Sim uArch: core: 46, cta: 1 initialized @(2,0)
GPGPU-Sim uArch: core: 47, cta: 1 initialized @(2,0)
GPGPU-Sim uArch: core: 48, cta: 1 initialized @(2,0)
GPGPU-Sim uArch: core: 49, cta: 1 initialized @(2,0)
GPGPU-Sim uArch: core: 50, cta: 1 initialized @(2,0)
GPGPU-Sim uArch: core: 51, cta: 1 initialized @(2,0)
GPGPU-Sim uArch: core: 52, cta: 1 initialized @(2,0)
GPGPU-Sim uArch: core: 53, cta: 1 initialized @(2,0)
GPGPU-Sim uArch: core: 54, cta: 1 initialized @(2,0)
GPGPU-Sim uArch: core: 55, cta: 1 initialized @(2,0)
GPGPU-Sim uArch: core: 56, cta: 1 initialized @(2,0)
GPGPU-Sim uArch: core: 57, cta: 1 initialized @(2,0)
GPGPU-Sim uArch: core: 58, cta: 1 initialized @(2,0)
GPGPU-Sim uArch: core: 59, cta: 1 initialized @(2,0)
GPGPU-Sim uArch: core: 60, cta: 1 initialized @(2,0)
GPGPU-Sim uArch: core: 61, cta: 1 initialized @(2,0)
GPGPU-Sim uArch: core: 62, cta: 1 initialized @(2,0)
GPGPU-Sim uArch: core: 63, cta: 1 initialized @(2,0)
GPGPU-Sim uArch: core: 64, cta: 1 initialized @(2,0)
GPGPU-Sim uArch: core: 65, cta: 1 initialized @(2,0)
GPGPU-Sim uArch: core: 66, cta: 1 initialized @(2,0)
GPGPU-Sim uArch: core: 67, cta: 1 initialized @(2,0)
GPGPU-Sim uArch: core: 68, cta: 1 initialized @(2,0)
GPGPU-Sim uArch: core: 69, cta: 1 initialized @(2,0)
GPGPU-Sim uArch: core: 70, cta: 1 initialized @(2,0)
GPGPU-Sim uArch: core: 71, cta: 1 initialized @(2,0)
GPGPU-Sim uArch: core: 72, cta: 1 initialized @(2,0)
GPGPU-Sim uArch: core: 73, cta: 1 initialized @(2,0)
GPGPU-Sim uArch: core: 74, cta: 1 initialized @(2,0)
GPGPU-Sim uArch: core: 75, cta: 1 initialized @(2,0)
GPGPU-Sim uArch: core: 76, cta: 1 initialized @(2,0)
GPGPU-Sim uArch: core: 77, cta: 1 initialized @(2,0)
GPGPU-Sim uArch: core: 78, cta: 1 initialized @(2,0)
GPGPU-Sim uArch: core: 79, cta: 1 initialized @(2,0)
GPGPU-Sim uArch: core:  0, cta: 1 initialized @(2,0)
GPGPU-Sim uArch: core:  1, cta: 2 initialized @(3,0)
GPGPU-Sim uArch: core:  2, cta: 2 initialized @(3,0)
GPGPU-Sim uArch: core:  3, cta: 2 initialized @(3,0)
GPGPU-Sim uArch: core:  4, cta: 2 initialized @(3,0)
GPGPU-Sim uArch: core:  5, cta: 2 initialized @(3,0)
GPGPU-Sim uArch: core:  6, cta: 2 initialized @(3,0)
GPGPU-Sim uArch: core:  7, cta: 2 initialized @(3,0)
GPGPU-Sim uArch: core:  8, cta: 2 initialized @(3,0)
GPGPU-Sim uArch: core:  9, cta: 2 initialized @(3,0)
GPGPU-Sim uArch: core: 10, cta: 2 initialized @(3,0)
GPGPU-Sim uArch: core: 11, cta: 2 initialized @(3,0)
GPGPU-Sim uArch: core: 12, cta: 2 initialized @(3,0)
GPGPU-Sim uArch: core: 13, cta: 2 initialized @(3,0)
GPGPU-Sim uArch: core: 14, cta: 2 initialized @(3,0)
GPGPU-Sim uArch: core: 15, cta: 2 initialized @(3,0)
GPGPU-Sim uArch: core: 16, cta: 2 initialized @(3,0)
GPGPU-Sim uArch: core: 17, cta: 2 initialized @(3,0)
GPGPU-Sim uArch: core: 18, cta: 2 initialized @(3,0)
GPGPU-Sim uArch: core: 19, cta: 2 initialized @(3,0)
GPGPU-Sim uArch: core: 20, cta: 2 initialized @(3,0)
GPGPU-Sim uArch: core: 21, cta: 2 initialized @(3,0)
GPGPU-Sim uArch: core: 22, cta: 2 initialized @(3,0)
GPGPU-Sim uArch: core: 23, cta: 2 initialized @(3,0)
GPGPU-Sim uArch: core: 24, cta: 2 initialized @(3,0)
GPGPU-Sim uArch: core: 25, cta: 2 initialized @(3,0)
GPGPU-Sim uArch: core: 26, cta: 2 initialized @(3,0)
GPGPU-Sim uArch: core: 27, cta: 2 initialized @(3,0)
GPGPU-Sim uArch: core: 28, cta: 2 initialized @(3,0)
GPGPU-Sim uArch: core: 29, cta: 2 initialized @(3,0)
GPGPU-Sim uArch: core: 30, cta: 2 initialized @(3,0)
GPGPU-Sim uArch: core: 31, cta: 2 initialized @(3,0)
GPGPU-Sim uArch: core: 32, cta: 2 initialized @(3,0)
GPGPU-Sim uArch: core: 33, cta: 2 initialized @(3,0)
GPGPU-Sim uArch: core: 34, cta: 2 initialized @(3,0)
GPGPU-Sim uArch: core: 35, cta: 2 initialized @(3,0)
GPGPU-Sim uArch: core: 36, cta: 2 initialized @(3,0)
GPGPU-Sim uArch: core: 37, cta: 2 initialized @(3,0)
GPGPU-Sim uArch: core: 38, cta: 2 initialized @(3,0)
GPGPU-Sim uArch: core: 39, cta: 2 initialized @(3,0)
GPGPU-Sim uArch: core: 40, cta: 2 initialized @(3,0)
GPGPU-Sim uArch: core: 41, cta: 2 initialized @(3,0)
GPGPU-Sim uArch: core: 42, cta: 2 initialized @(3,0)
GPGPU-Sim uArch: core: 43, cta: 2 initialized @(3,0)
GPGPU-Sim uArch: core: 44, cta: 2 initialized @(3,0)
GPGPU-Sim uArch: core: 45, cta: 2 initialized @(3,0)
GPGPU-Sim uArch: core: 46, cta: 2 initialized @(3,0)
GPGPU-Sim uArch: core: 47, cta: 2 initialized @(3,0)
GPGPU-Sim uArch: core: 48, cta: 2 initialized @(3,0)
GPGPU-Sim uArch: core: 49, cta: 2 initialized @(3,0)
GPGPU-Sim uArch: core: 50, cta: 2 initialized @(3,0)
GPGPU-Sim uArch: core: 51, cta: 2 initialized @(3,0)
GPGPU-Sim uArch: core: 52, cta: 2 initialized @(3,0)
GPGPU-Sim uArch: core: 53, cta: 2 initialized @(3,0)
GPGPU-Sim uArch: core: 54, cta: 2 initialized @(3,0)
GPGPU-Sim uArch: core: 55, cta: 2 initialized @(3,0)
GPGPU-Sim uArch: core: 56, cta: 2 initialized @(3,0)
GPGPU-Sim uArch: core: 57, cta: 2 initialized @(3,0)
GPGPU-Sim uArch: core: 58, cta: 2 initialized @(3,0)
GPGPU-Sim uArch: core: 59, cta: 2 initialized @(3,0)
GPGPU-Sim uArch: core: 60, cta: 2 initialized @(3,0)
GPGPU-Sim uArch: core: 61, cta: 2 initialized @(3,0)
GPGPU-Sim uArch: core: 62, cta: 2 initialized @(3,0)
GPGPU-Sim uArch: core: 63, cta: 2 initialized @(3,0)
GPGPU-Sim uArch: core: 64, cta: 2 initialized @(3,0)
GPGPU-Sim uArch: core: 65, cta: 2 initialized @(3,0)
GPGPU-Sim uArch: core: 66, cta: 2 initialized @(3,0)
GPGPU-Sim uArch: core: 67, cta: 2 initialized @(3,0)
GPGPU-Sim uArch: core: 68, cta: 2 initialized @(3,0)
GPGPU-Sim uArch: core: 69, cta: 2 initialized @(3,0)
GPGPU-Sim uArch: core: 70, cta: 2 initialized @(3,0)
GPGPU-Sim uArch: core: 71, cta: 2 initialized @(3,0)
GPGPU-Sim uArch: core: 72, cta: 2 initialized @(3,0)
GPGPU-Sim uArch: core: 73, cta: 2 initialized @(3,0)
GPGPU-Sim uArch: core: 74, cta: 2 initialized @(3,0)
GPGPU-Sim uArch: core: 75, cta: 2 initialized @(3,0)
GPGPU-Sim uArch: core: 76, cta: 2 initialized @(3,0)
GPGPU-Sim uArch: core: 77, cta: 2 initialized @(3,0)
GPGPU-Sim uArch: core: 78, cta: 2 initialized @(3,0)
GPGPU-Sim uArch: core: 79, cta: 2 initialized @(3,0)
GPGPU-Sim uArch: core:  0, cta: 2 initialized @(3,0)
GPGPU-Sim uArch: core:  1, cta: 3 initialized @(4,0)
GPGPU-Sim uArch: core:  2, cta: 3 initialized @(4,0)
GPGPU-Sim uArch: core:  3, cta: 3 initialized @(4,0)
GPGPU-Sim uArch: core:  4, cta: 3 initialized @(4,0)
GPGPU-Sim uArch: core:  5, cta: 3 initialized @(4,0)
GPGPU-Sim uArch: core:  6, cta: 3 initialized @(4,0)
GPGPU-Sim uArch: core:  7, cta: 3 initialized @(4,0)
GPGPU-Sim uArch: core:  8, cta: 3 initialized @(4,0)
GPGPU-Sim uArch: core:  9, cta: 3 initialized @(4,0)
GPGPU-Sim uArch: core: 10, cta: 3 initialized @(4,0)
GPGPU-Sim uArch: core: 11, cta: 3 initialized @(4,0)
GPGPU-Sim uArch: core: 12, cta: 3 initialized @(4,0)
GPGPU-Sim uArch: core: 13, cta: 3 initialized @(4,0)
GPGPU-Sim uArch: core: 14, cta: 3 initialized @(4,0)
GPGPU-Sim uArch: core: 15, cta: 3 initialized @(4,0)
GPGPU-Sim uArch: core: 16, cta: 3 initialized @(4,0)
GPGPU-Sim uArch: core: 17, cta: 3 initialized @(4,0)
GPGPU-Sim uArch: core: 18, cta: 3 initialized @(4,0)
GPGPU-Sim uArch: core: 19, cta: 3 initialized @(4,0)
GPGPU-Sim uArch: core: 20, cta: 3 initialized @(4,0)
GPGPU-Sim uArch: core: 21, cta: 3 initialized @(4,0)
GPGPU-Sim uArch: core: 22, cta: 3 initialized @(4,0)
GPGPU-Sim uArch: core: 23, cta: 3 initialized @(4,0)
GPGPU-Sim uArch: core: 24, cta: 3 initialized @(4,0)
GPGPU-Sim uArch: core: 25, cta: 3 initialized @(4,0)
GPGPU-Sim uArch: core: 26, cta: 3 initialized @(4,0)
GPGPU-Sim uArch: core: 27, cta: 3 initialized @(4,0)
GPGPU-Sim uArch: core: 28, cta: 3 initialized @(4,0)
GPGPU-Sim uArch: core: 29, cta: 3 initialized @(4,0)
GPGPU-Sim uArch: core: 30, cta: 3 initialized @(4,0)
GPGPU-Sim uArch: core: 31, cta: 3 initialized @(4,0)
GPGPU-Sim uArch: core: 32, cta: 3 initialized @(4,0)
GPGPU-Sim uArch: core: 33, cta: 3 initialized @(4,0)
GPGPU-Sim uArch: core: 34, cta: 3 initialized @(4,0)
GPGPU-Sim uArch: core: 35, cta: 3 initialized @(4,0)
GPGPU-Sim uArch: core: 36, cta: 3 initialized @(4,0)
GPGPU-Sim uArch: core: 37, cta: 3 initialized @(4,0)
GPGPU-Sim uArch: core: 38, cta: 3 initialized @(4,0)
GPGPU-Sim uArch: core: 39, cta: 3 initialized @(4,0)
GPGPU-Sim uArch: core: 40, cta: 3 initialized @(4,0)
GPGPU-Sim uArch: core: 41, cta: 3 initialized @(4,0)
GPGPU-Sim uArch: core: 42, cta: 3 initialized @(4,0)
GPGPU-Sim uArch: core: 43, cta: 3 initialized @(4,0)
GPGPU-Sim uArch: core: 44, cta: 3 initialized @(4,0)
GPGPU-Sim uArch: core: 45, cta: 3 initialized @(4,0)
GPGPU-Sim uArch: core: 46, cta: 3 initialized @(4,0)
GPGPU-Sim uArch: core: 47, cta: 3 initialized @(4,0)
GPGPU-Sim uArch: core: 48, cta: 3 initialized @(4,0)
GPGPU-Sim uArch: core: 49, cta: 3 initialized @(4,0)
GPGPU-Sim uArch: core: 50, cta: 3 initialized @(4,0)
GPGPU-Sim uArch: core: 51, cta: 3 initialized @(4,0)
GPGPU-Sim uArch: core: 52, cta: 3 initialized @(4,0)
GPGPU-Sim uArch: core: 53, cta: 3 initialized @(4,0)
GPGPU-Sim uArch: core: 54, cta: 3 initialized @(4,0)
GPGPU-Sim uArch: core: 55, cta: 3 initialized @(4,0)
GPGPU-Sim uArch: core: 56, cta: 3 initialized @(4,0)
GPGPU-Sim uArch: core: 57, cta: 3 initialized @(4,0)
GPGPU-Sim uArch: core: 58, cta: 3 initialized @(4,0)
GPGPU-Sim uArch: core: 59, cta: 3 initialized @(4,0)
GPGPU-Sim uArch: core: 60, cta: 3 initialized @(4,0)
GPGPU-Sim uArch: core: 61, cta: 3 initialized @(4,0)
GPGPU-Sim uArch: core: 62, cta: 3 initialized @(4,0)
GPGPU-Sim uArch: core: 63, cta: 3 initialized @(4,0)
GPGPU-Sim uArch: core: 64, cta: 3 initialized @(4,0)
GPGPU-Sim uArch: core: 65, cta: 3 initialized @(4,0)
GPGPU-Sim uArch: core: 66, cta: 3 initialized @(4,0)
GPGPU-Sim uArch: core: 67, cta: 3 initialized @(4,0)
GPGPU-Sim uArch: core: 68, cta: 3 initialized @(4,0)
GPGPU-Sim uArch: core: 69, cta: 3 initialized @(4,0)
GPGPU-Sim uArch: core: 70, cta: 3 initialized @(4,0)
GPGPU-Sim uArch: core: 71, cta: 3 initialized @(4,0)
GPGPU-Sim uArch: core: 72, cta: 3 initialized @(4,0)
GPGPU-Sim uArch: core: 73, cta: 3 initialized @(4,0)
GPGPU-Sim uArch: core: 74, cta: 3 initialized @(4,0)
GPGPU-Sim uArch: core: 75, cta: 3 initialized @(4,0)
GPGPU-Sim uArch: core: 76, cta: 3 initialized @(4,0)
GPGPU-Sim uArch: core: 77, cta: 3 initialized @(4,0)
GPGPU-Sim uArch: core: 78, cta: 3 initialized @(4,0)
GPGPU-Sim uArch: core: 79, cta: 3 initialized @(4,0)
GPGPU-Sim uArch: core:  0, cta: 3 initialized @(4,0)
GPGPU-Sim uArch: core:  1, cta: 4 initialized @(5,0)
GPGPU-Sim uArch: core:  2, cta: 4 initialized @(5,0)
GPGPU-Sim uArch: core:  3, cta: 4 initialized @(5,0)
GPGPU-Sim uArch: core:  4, cta: 4 initialized @(5,0)
GPGPU-Sim uArch: core:  5, cta: 4 initialized @(5,0)
GPGPU-Sim uArch: core:  6, cta: 4 initialized @(5,0)
GPGPU-Sim uArch: core:  7, cta: 4 initialized @(5,0)
GPGPU-Sim uArch: core:  8, cta: 4 initialized @(5,0)
GPGPU-Sim uArch: core:  9, cta: 4 initialized @(5,0)
GPGPU-Sim uArch: core: 10, cta: 4 initialized @(5,0)
GPGPU-Sim uArch: core: 11, cta: 4 initialized @(5,0)
GPGPU-Sim uArch: core: 12, cta: 4 initialized @(5,0)
GPGPU-Sim uArch: core: 13, cta: 4 initialized @(5,0)
GPGPU-Sim uArch: core: 14, cta: 4 initialized @(5,0)
GPGPU-Sim uArch: core: 15, cta: 4 initialized @(5,0)
GPGPU-Sim uArch: core: 16, cta: 4 initialized @(5,0)
GPGPU-Sim uArch: core: 17, cta: 4 initialized @(5,0)
GPGPU-Sim uArch: core: 18, cta: 4 initialized @(5,0)
GPGPU-Sim uArch: core: 19, cta: 4 initialized @(5,0)
GPGPU-Sim uArch: core: 20, cta: 4 initialized @(5,0)
GPGPU-Sim uArch: core: 21, cta: 4 initialized @(5,0)
GPGPU-Sim uArch: core: 22, cta: 4 initialized @(5,0)
GPGPU-Sim uArch: core: 23, cta: 4 initialized @(5,0)
GPGPU-Sim uArch: core: 24, cta: 4 initialized @(5,0)
GPGPU-Sim uArch: core: 25, cta: 4 initialized @(5,0)
GPGPU-Sim uArch: core: 26, cta: 4 initialized @(5,0)
GPGPU-Sim uArch: core: 27, cta: 4 initialized @(5,0)
GPGPU-Sim uArch: core: 28, cta: 4 initialized @(5,0)
GPGPU-Sim uArch: core: 29, cta: 4 initialized @(5,0)
GPGPU-Sim uArch: core: 30, cta: 4 initialized @(5,0)
GPGPU-Sim uArch: core: 31, cta: 4 initialized @(5,0)
GPGPU-Sim uArch: core: 32, cta: 4 initialized @(5,0)
GPGPU-Sim uArch: core: 33, cta: 4 initialized @(5,0)
GPGPU-Sim uArch: core: 34, cta: 4 initialized @(5,0)
GPGPU-Sim uArch: core: 35, cta: 4 initialized @(5,0)
GPGPU-Sim uArch: core: 36, cta: 4 initialized @(5,0)
GPGPU-Sim uArch: core: 37, cta: 4 initialized @(5,0)
GPGPU-Sim uArch: core: 38, cta: 4 initialized @(5,0)
GPGPU-Sim uArch: core: 39, cta: 4 initialized @(5,0)
GPGPU-Sim uArch: core: 40, cta: 4 initialized @(5,0)
GPGPU-Sim uArch: core: 41, cta: 4 initialized @(5,0)
GPGPU-Sim uArch: core: 42, cta: 4 initialized @(5,0)
GPGPU-Sim uArch: core: 43, cta: 4 initialized @(5,0)
GPGPU-Sim uArch: core: 44, cta: 4 initialized @(5,0)
GPGPU-Sim uArch: core: 45, cta: 4 initialized @(5,0)
GPGPU-Sim uArch: core: 46, cta: 4 initialized @(5,0)
GPGPU-Sim uArch: core: 47, cta: 4 initialized @(5,0)
GPGPU-Sim uArch: core: 48, cta: 4 initialized @(5,0)
GPGPU-Sim uArch: core: 49, cta: 4 initialized @(5,0)
GPGPU-Sim uArch: core: 50, cta: 4 initialized @(5,0)
GPGPU-Sim uArch: core: 51, cta: 4 initialized @(5,0)
GPGPU-Sim uArch: core: 52, cta: 4 initialized @(5,0)
GPGPU-Sim uArch: core: 53, cta: 4 initialized @(5,0)
GPGPU-Sim uArch: core: 54, cta: 4 initialized @(5,0)
GPGPU-Sim uArch: core: 55, cta: 4 initialized @(5,0)
GPGPU-Sim uArch: core: 56, cta: 4 initialized @(5,0)
GPGPU-Sim uArch: core: 57, cta: 4 initialized @(5,0)
GPGPU-Sim uArch: core: 58, cta: 4 initialized @(5,0)
GPGPU-Sim uArch: core: 59, cta: 4 initialized @(5,0)
GPGPU-Sim uArch: core: 60, cta: 4 initialized @(5,0)
GPGPU-Sim uArch: core: 61, cta: 4 initialized @(5,0)
GPGPU-Sim uArch: core: 62, cta: 4 initialized @(5,0)
GPGPU-Sim uArch: core: 63, cta: 4 initialized @(5,0)
GPGPU-Sim uArch: core: 64, cta: 4 initialized @(5,0)
GPGPU-Sim uArch: core: 65, cta: 4 initialized @(5,0)
GPGPU-Sim uArch: core: 66, cta: 4 initialized @(5,0)
GPGPU-Sim uArch: core: 67, cta: 4 initialized @(5,0)
GPGPU-Sim uArch: core: 68, cta: 4 initialized @(5,0)
GPGPU-Sim uArch: core: 69, cta: 4 initialized @(5,0)
GPGPU-Sim uArch: core: 70, cta: 4 initialized @(5,0)
GPGPU-Sim uArch: core: 71, cta: 4 initialized @(5,0)
GPGPU-Sim uArch: core: 72, cta: 4 initialized @(5,0)
GPGPU-Sim uArch: core: 73, cta: 4 initialized @(5,0)
GPGPU-Sim uArch: core: 74, cta: 4 initialized @(5,0)
GPGPU-Sim uArch: core: 75, cta: 4 initialized @(5,0)
GPGPU-Sim uArch: core: 76, cta: 4 initialized @(5,0)
GPGPU-Sim uArch: core: 77, cta: 4 initialized @(5,0)
GPGPU-Sim uArch: core: 78, cta: 4 initialized @(5,0)
GPGPU-Sim uArch: core: 79, cta: 4 initialized @(5,0)
GPGPU-Sim uArch: core:  0, cta: 4 initialized @(5,0)
GPGPU-Sim uArch: cycles simulated: 500  inst.: 23168 (ipc=46.3) sim_rate=11584 (inst/sec) elapsed = 0:0:00:02 / Sat Apr 24 03:34:25 2021
GPGPU-Sim PTX: 100000 instructions simulated : ctaid=(4,10,0) tid=(15,5,0)
GPGPU-Sim PTX: 200000 instructions simulated : ctaid=(8,16,0) tid=(15,5,0)
GPGPU-Sim PTX: 300000 instructions simulated : ctaid=(14,7,0) tid=(15,3,0)
GPGPU-Sim PTX: 400000 instructions simulated : ctaid=(11,9,0) tid=(15,3,0)
GPGPU-Sim uArch: cycles simulated: 1000  inst.: 482016 (ipc=482.0) sim_rate=160672 (inst/sec) elapsed = 0:0:00:03 / Sat Apr 24 03:34:26 2021
GPGPU-Sim PTX: 500000 instructions simulated : ctaid=(3,6,0) tid=(15,7,0)
GPGPU-Sim PTX: 600000 instructions simulated : ctaid=(4,11,0) tid=(15,5,0)
GPGPU-Sim PTX: 700000 instructions simulated : ctaid=(7,12,0) tid=(15,5,0)
GPGPU-Sim PTX: 800000 instructions simulated : ctaid=(3,8,0) tid=(15,3,0)
GPGPU-Sim PTX: 900000 instructions simulated : ctaid=(10,8,0) tid=(15,1,0)
GPGPU-Sim PTX: 1000000 instructions simulated : ctaid=(14,20,0) tid=(15,5,0)
GPGPU-Sim PTX: 1100000 instructions simulated : ctaid=(8,21,0) tid=(15,7,0)
GPGPU-Sim uArch: cycles simulated: 1500  inst.: 1153632 (ipc=769.1) sim_rate=230726 (inst/sec) elapsed = 0:0:00:05 / Sat Apr 24 03:34:28 2021
GPGPU-Sim PTX: 1200000 instructions simulated : ctaid=(12,2,0) tid=(15,5,0)
GPGPU-Sim PTX: 1300000 instructions simulated : ctaid=(15,3,0) tid=(15,1,0)
GPGPU-Sim uArch: cycles simulated: 2000  inst.: 1316352 (ipc=658.2) sim_rate=188050 (inst/sec) elapsed = 0:0:00:07 / Sat Apr 24 03:34:30 2021
GPGPU-Sim PTX: 1400000 instructions simulated : ctaid=(11,11,0) tid=(15,1,0)
GPGPU-Sim PTX: 1500000 instructions simulated : ctaid=(6,15,0) tid=(15,1,0)
GPGPU-Sim uArch: cycles simulated: 2500  inst.: 1513280 (ipc=605.3) sim_rate=168142 (inst/sec) elapsed = 0:0:00:09 / Sat Apr 24 03:34:32 2021
GPGPU-Sim PTX: 1600000 instructions simulated : ctaid=(13,3,0) tid=(15,5,0)
GPGPU-Sim PTX: 1700000 instructions simulated : ctaid=(4,11,0) tid=(15,5,0)
GPGPU-Sim PTX: 1800000 instructions simulated : ctaid=(1,3,0) tid=(15,7,0)
GPGPU-Sim PTX: 1900000 instructions simulated : ctaid=(7,19,0) tid=(15,5,0)
GPGPU-Sim uArch: cycles simulated: 3000  inst.: 1910464 (ipc=636.8) sim_rate=173678 (inst/sec) elapsed = 0:0:00:11 / Sat Apr 24 03:34:34 2021
GPGPU-Sim PTX: 2000000 instructions simulated : ctaid=(0,5,0) tid=(15,3,0)
GPGPU-Sim PTX: 2100000 instructions simulated : ctaid=(14,8,0) tid=(15,5,0)
GPGPU-Sim PTX: 2200000 instructions simulated : ctaid=(7,19,0) tid=(15,5,0)
GPGPU-Sim PTX: 2300000 instructions simulated : ctaid=(0,21,0) tid=(15,7,0)
GPGPU-Sim PTX: 2400000 instructions simulated : ctaid=(3,12,0) tid=(15,3,0)
GPGPU-Sim PTX: 2500000 instructions simulated : ctaid=(5,24,0) tid=(15,1,0)
[...]
n_cmd=81282 n_nop=78426 n_act=146 n_pre=130 n_req=1368 n_rd=1620 n_write=960 bw_util=0.06348
n_activity=9449 dram_eff=0.5461
bk0: 94a 77940i bk1: 104a 77519i bk2: 72a 80537i bk3: 84a 80353i bk4: 124a 78630i bk5: 126a 77839i bk6: 130a 77906i bk7: 132a 77691i bk8: 184a 76666i bk9: 182a 76426i bk10: 90a 77565i bk11: 92a 77539i bk12: 24a 80635i bk13: 22a 80693i bk14: 76a 78418i bk15: 84a 78259i 
dram_util_bins: 0 0 0 0 0 0 0 0 0 0
dram_eff_bins: 0 0 0 0 0 0 0 0 0 0
mrqq: max=16 avg=1.00381
Memory Partition 4: 
Cache L2_bank_008:
MSHR contents

Cache L2_bank_009:
MSHR contents

In Dram Latency Queue (total = 0): 
DRAM[4]: 16 bks, busW=4 BL=8 CL=12, tRRD=2 tCCD=6, tRCD=12 tRAS=28 tRP=12 tRC=40
n_cmd=81282 n_nop=78416 n_act=129 n_pre=113 n_req=1392 n_rd=1650 n_write=974 bw_util=0.06457
n_activity=10204 dram_eff=0.5143
bk0: 100a 77931i bk1: 102a 77596i bk2: 80a 80474i bk3: 80a 80425i bk4: 128a 78599i bk5: 134a 78468i bk6: 122a 78245i bk7: 134a 77760i bk8: 178a 76492i bk9: 188a 76360i bk10: 90a 77462i bk11: 98a 77579i bk12: 24a 80465i bk13: 32a 80608i bk14: 78a 78498i bk15: 82a 78343i 
dram_util_bins: 0 0 0 0 0 0 0 0 0 0
dram_eff_bins: 0 0 0 0 0 0 0 0 0 0
mrqq: max=16 avg=0.992077
Memory Partition 5: 
Cache L2_bank_010:
MSHR contents

Cache L2_bank_011:
MSHR contents

In Dram Latency Queue (total = 0): 
DRAM[5]: 16 bks, busW=4 BL=8 CL=12, tRRD=2 tCCD=6, tRCD=12 tRAS=28 tRP=12 tRC=40
n_cmd=81282 n_nop=78382 n_act=141 n_pre=125 n_req=1396 n_rd=1652 n_write=982 bw_util=0.06481
n_activity=10695 dram_eff=0.4926
bk0: 100a 77803i bk1: 106a 77783i bk2: 72a 80426i bk3: 82a 80445i bk4: 124a 78974i bk5: 142a 78309i bk6: 122a 78109i bk7: 132a 77609i bk8: 180a 77068i bk9: 186a 76946i bk10: 94a 77858i bk11: 94a 77597i bk12: 32a 80506i bk13: 28a 80430i bk14: 82a 78595i bk15: 76a 78741i 
dram_util_bins: 0 0 0 0 0 0 0 0 0 0
dram_eff_bins: 0 0 0 0 0 0 0 0 0 0
mrqq: max=16 avg=0.977018
Memory Partition 6: 
Cache L2_bank_012:
MSHR contents

Cache L2_bank_013:
MSHR contents

In Dram Latency Queue (total = 0): 
DRAM[6]: 16 bks, busW=4 BL=8 CL=12, tRRD=2 tCCD=6, tRCD=12 tRAS=28 tRP=12 tRC=40
n_cmd=81282 n_nop=78452 n_act=137 n_pre=121 n_req=1365 n_rd=1594 n_write=978 bw_util=0.06329
n_activity=9553 dram_eff=0.5385
bk0: 106a 77735i bk1: 90a 77646i bk2: 80a 80223i bk3: 62a 80578i bk4: 128a 78454i bk5: 126a 78252i bk6: 124a 78424i bk7: 124a 77785i bk8: 184a 76760i bk9: 174a 76656i bk10: 92a 77514i bk11: 90a 77363i bk12: 34a 80607i bk13: 20a 80576i bk14: 90a 78785i bk15: 70a 78515i 
dram_util_bins: 0 0 0 0 0 0 0 0 0 0
dram_eff_bins: 0 0 0 0 0 0 0 0 0 0
mrqq: max=16 avg=0.999656
Memory Partition 7: 
Cache L2_bank_014:
MSHR contents

Cache L2_bank_015:
MSHR contents

In Dram Latency Queue (total = 0): 
DRAM[7]: 16 bks, busW=4 BL=8 CL=12, tRRD=2 tCCD=6, tRCD=12 tRAS=28 tRP=12 tRC=40
n_cmd=81282 n_nop=78433 n_act=147 n_pre=131 n_req=1366 n_rd=1592 n_write=979 bw_util=0.06326
n_activity=10277 dram_eff=0.5003
bk0: 106a 77778i bk1: 98a 78456i bk2: 82a 80386i bk3: 66a 80666i bk4: 126a 78414i bk5: 130a 78397i bk6: 120a 78174i bk7: 120a 77788i bk8: 174a 76464i bk9: 170a 76827i bk10: 90a 77609i bk11: 92a 77703i bk12: 30a 80519i bk13: 24a 80514i bk14: 90a 78683i bk15: 74a 78495i 
dram_util_bins: 0 0 0 0 0 0 0 0 0 0
dram_eff_bins: 0 0 0 0 0 0 0 0 0 0
mrqq: max=16 avg=0.984757
Memory Partition 8: 
Cache L2_bank_016:
MSHR contents

Cache L2_bank_017:
MSHR contents

In Dram Latency Queue (total = 0): 
DRAM[8]: 16 bks, busW=4 BL=8 CL=12, tRRD=2 tCCD=6, tRCD=12 tRAS=28 tRP=12 tRC=40
n_cmd=81282 n_nop=78440 n_act=125 n_pre=109 n_req=1389 n_rd=1634 n_write=974 bw_util=0.06417
n_activity=9714 dram_eff=0.537
bk0: 100a 77545i bk1: 104a 77365i bk2: 76a 80481i bk3: 74a 80351i bk4: 130a 78595i bk5: 124a 78241i bk6: 134a 77852i bk7: 124a 77869i bk8: 184a 76523i bk9: 176a 76494i bk10: 92a 77164i bk11: 92a 77671i bk12: 26a 80610i bk13: 30a 80421i bk14: 84a 78369i bk15: 84a 78415i 
dram_util_bins: 0 0 0 0 0 0 0 0 0 0
dram_eff_bins: 0 0 0 0 0 0 0 0 0 0
mrqq: max=16 avg=0.987254
Memory Partition 9: 
Cache L2_bank_018:
MSHR contents

Cache L2_bank_019:
MSHR contents

In Dram Latency Queue (total = 0): 
DRAM[9]: 16 bks, busW=4 BL=8 CL=12, tRRD=2 tCCD=6, tRCD=12 tRAS=28 tRP=12 tRC=40
n_cmd=81282 n_nop=78444 n_act=143 n_pre=127 n_req=1367 n_rd=1590 n_write=978 bw_util=0.06319
n_activity=9673 dram_eff=0.531
bk0: 100a 77615i bk1: 102a 77439i bk2: 76a 80443i bk3: 76a 80558i bk4: 128a 78642i bk5: 122a 78238i bk6: 132a 78091i bk7: 120a 77270i bk8: 182a 76955i bk9: 168a 76914i bk10: 88a 77615i bk11: 88a 77534i bk12: 24a 80394i bk13: 24a 80641i bk14: 80a 78470i bk15: 80a 78618i 
dram_util_bins: 0 0 0 0 0 0 0 0 0 0
dram_eff_bins: 0 0 0 0 0 0 0 0 0 0
mrqq: max=16 avg=0.971667
Memory Partition 10: 
Cache L2_bank_020:
MSHR contents

Cache L2_bank_021:
MSHR contents

In Dram Latency Queue (total = 0): 
DRAM[10]: 16 bks, busW=4 BL=8 CL=12, tRRD=2 tCCD=6, tRCD=12 tRAS=28 tRP=12 tRC=40
n_cmd=81282 n_nop=78409 n_act=130 n_pre=114 n_req=1395 n_rd=1662 n_write=967 bw_util=0.06469
n_activity=10079 dram_eff=0.5217
bk0: 106a 77698i bk1: 98a 77614i bk2: 82a 80381i bk3: 74a 80510i bk4: 138a 78378i bk5: 128a 78219i bk6: 136a 77943i bk7: 128a 77944i bk8: 188a 77015i bk9: 176a 77463i bk10: 94a 77725i bk11: 88a 77680i bk12: 38a 80433i bk13: 20a 80613i bk14: 90a 78439i bk15: 78a 78402i 
dram_util_bins: 0 0 0 0 0 0 0 0 0 0
dram_eff_bins: 0 0 0 0 0 0 0 0 0 0
mrqq: max=16 avg=0.971507
Memory Partition 11: 
Cache L2_bank_022:
MSHR contents

Cache L2_bank_023:
MSHR contents

In Dram Latency Queue (total = 0): 
DRAM[11]: 16 bks, busW=4 BL=8 CL=12, tRRD=2 tCCD=6, tRCD=12 tRAS=28 tRP=12 tRC=40
n_cmd=81282 n_nop=78430 n_act=136 n_pre=120 n_req=1377 n_rd=1632 n_write=964 bw_util=0.06388
n_activity=9836 dram_eff=0.5279
bk0: 98a 77623i bk1: 108a 77704i bk2: 80a 80438i bk3: 86a 80379i bk4: 128a 78520i bk5: 120a 78550i bk6: 138a 77956i bk7: 126a 77930i bk8: 184a 76770i bk9: 174a 77090i bk10: 88a 77720i bk11: 88a 77599i bk12: 24a 80624i bk13: 28a 80647i bk14: 78a 78383i bk15: 84a 78412i 
dram_util_bins: 0 0 0 0 0 0 0 0 0 0
dram_eff_bins: 0 0 0 0 0 0 0 0 0 0
mrqq: max=16 avg=1.00515
Memory Partition 12: 
Cache L2_bank_024:
MSHR contents

Cache L2_bank_025:
MSHR contents

In Dram Latency Queue (total = 0): 
DRAM[12]: 16 bks, busW=4 BL=8 CL=12, tRRD=2 tCCD=6, tRCD=12 tRAS=28 tRP=12 tRC=40
n_cmd=81282 n_nop=78365 n_act=124 n_pre=108 n_req=1426 n_rd=1704 n_write=981 bw_util=0.06607
n_activity=10230 dram_eff=0.5249
bk0: 116a 77941i bk1: 100a 78057i bk2: 92a 80427i bk3: 76a 80647i bk4: 140a 78450i bk5: 124a 78591i bk6: 138a 77998i bk7: 132a 77798i bk8: 192a 76927i bk9: 180a 76484i bk10: 92a 77700i bk11: 88a 77766i bk12: 34a 80517i bk13: 28a 80609i bk14: 96a 78941i bk15: 76a 78691i 
dram_util_bins: 0 0 0 0 0 0 0 0 0 0
dram_eff_bins: 0 0 0 0 0 0 0 0 0 0
mrqq: max=16 avg=0.991942
Memory Partition 13: 
Cache L2_bank_026:
MSHR contents

Cache L2_bank_027:
MSHR contents

In Dram Latency Queue (total = 0): 
DRAM[13]: 16 bks, busW=4 BL=8 CL=12, tRRD=2 tCCD=6, tRCD=12 tRAS=28 tRP=12 tRC=40
n_cmd=81282 n_nop=78453 n_act=131 n_pre=115 n_req=1373 n_rd=1612 n_write=971 bw_util=0.06356
n_activity=10368 dram_eff=0.4983
bk0: 108a 77940i bk1: 98a 78049i bk2: 86a 80479i bk3: 72a 80484i bk4: 128a 79065i bk5: 124a 78694i bk6: 124a 77956i bk7: 132a 78067i bk8: 176a 77333i bk9: 172a 76718i bk10: 92a 77987i bk11: 90a 77707i bk12: 26a 80675i bk13: 24a 80690i bk14: 88a 78568i bk15: 72a 78756i 
dram_util_bins: 0 0 0 0 0 0 0 0 0 0
dram_eff_bins: 0 0 0 0 0 0 0 0 0 0
mrqq: max=16 avg=0.915098
Memory Partition 14: 
Cache L2_bank_028:
MSHR contents

Cache L2_bank_029:
MSHR contents

In Dram Latency Queue (total = 0): 
DRAM[14]: 16 bks, busW=4 BL=8 CL=12, tRRD=2 tCCD=6, tRCD=12 tRAS=28 tRP=12 tRC=40
n_cmd=81282 n_nop=78398 n_act=137 n_pre=121 n_req=1389 n_rd=1662 n_write=964 bw_util=0.06461
n_activity=10320 dram_eff=0.5089
bk0: 112a 78106i bk1: 98a 77846i bk2: 86a 80537i bk3: 70a 80484i bk4: 136a 78603i bk5: 126a 78644i bk6: 140a 78445i bk7: 128a 78204i bk8: 194a 77400i bk9: 174a 77370i bk10: 94a 77961i bk11: 88a 77767i bk12: 34a 80625i bk13: 24a 80611i bk14: 86a 78757i bk15: 72a 78562i 
dram_util_bins: 0 0 0 0 0 0 0 0 0 0
dram_eff_bins: 0 0 0 0 0 0 0 0 0 0
mrqq: max=16 avg=0.825964
Memory Partition 15: 
Cache L2_bank_030:
MSHR contents

Cache L2_bank_031:
MSHR contents

In Dram Latency Queue (total = 0): 
DRAM[15]: 16 bks, busW=4 BL=8 CL=12, tRRD=2 tCCD=6, tRCD=12 tRAS=28 tRP=12 tRC=40
n_cmd=81282 n_nop=78429 n_act=150 n_pre=134 n_req=1357 n_rd=1618 n_write=951 bw_util=0.06321
n_activity=10265 dram_eff=0.5005
bk0: 110a 78110i bk1: 98a 77805i bk2: 82a 80525i bk3: 68a 80689i bk4: 126a 78756i bk5: 122a 78654i bk6: 134a 78220i bk7: 126a 78191i bk8: 188a 77685i bk9: 166a 77300i bk10: 90a 78080i bk11: 90a 77931i bk12: 36a 80521i bk13: 26a 80669i bk14: 84a 78990i bk15: 72a 78702i 
dram_util_bins: 0 0 0 0 0 0 0 0 0 0
dram_eff_bins: 0 0 0 0 0 0 0 0 0 0
mrqq: max=16 avg=0.901651
Memory Partition 16: 
Cache L2_bank_032:
MSHR contents

Cache L2_bank_033:
MSHR contents

In Dram Latency Queue (total = 0): 
DRAM[16]: 16 bks, busW=4 BL=8 CL=12, tRRD=2 tCCD=6, tRCD=12 tRAS=28 tRP=12 tRC=40
n_cmd=81282 n_nop=78373 n_act=141 n_pre=125 n_req=1401 n_rd=1662 n_write=981 bw_util=0.06503
n_activity=10324 dram_eff=0.512
bk0: 110a 77692i bk1: 98a 77621i bk2: 74a 80540i bk3: 76a 80491i bk4: 134a 78288i bk5: 130a 78674i bk6: 138a 78124i bk7: 130a 78173i bk8: 192a 76418i bk9: 176a 76625i bk10: 92a 77460i bk11: 92a 78214i bk12: 38a 80591i bk13: 26a 80681i bk14: 80a 78636i bk15: 76a 78480i 
dram_util_bins: 0 0 0 0 0 0 0 0 0 0
dram_eff_bins: 0 0 0 0 0 0 0 0 0 0
mrqq: max=16 avg=0.996174
Memory Partition 17: 
Cache L2_bank_034:
MSHR contents

Cache L2_bank_035:
MSHR contents

In Dram Latency Queue (total = 0): 
DRAM[17]: 16 bks, busW=4 BL=8 CL=12, tRRD=2 tCCD=6, tRCD=12 tRAS=28 tRP=12 tRC=40
n_cmd=81282 n_nop=78370 n_act=156 n_pre=140 n_req=1385 n_rd=1648 n_write=968 bw_util=0.06437
n_activity=10396 dram_eff=0.5033
bk0: 110a 77620i bk1: 100a 77665i bk2: 78a 80414i bk3: 78a 80521i bk4: 130a 78626i bk5: 124a 78592i bk6: 136a 78124i bk7: 124a 78111i bk8: 184a 76792i bk9: 170a 76847i bk10: 94a 77797i bk11: 92a 77978i bk12: 36a 80517i bk13: 32a 80670i bk14: 80a 78526i bk15: 80a 78569i 
dram_util_bins: 0 0 0 0 0 0 0 0 0 0
dram_eff_bins: 0 0 0 0 0 0 0 0 0 0
mrqq: max=16 avg=0.96442
Memory Partition 18: 
Cache L2_bank_036:
MSHR contents

Cache L2_bank_037:
MSHR contents

In Dram Latency Queue (total = 0): 
DRAM[18]: 16 bks, busW=4 BL=8 CL=12, tRRD=2 tCCD=6, tRCD=12 tRAS=28 tRP=12 tRC=40
n_cmd=81282 n_nop=78369 n_act=137 n_pre=121 n_req=1410 n_rd=1660 n_write=995 bw_util=0.06533
n_activity=10744 dram_eff=0.4942
bk0: 116a 77471i bk1: 108a 77876i bk2: 82a 80503i bk3: 80a 80501i bk4: 126a 78311i bk5: 128a 78442i bk6: 134a 77727i bk7: 120a 78019i bk8: 188a 76745i bk9: 168a 77380i bk10: 90a 77791i bk11: 86a 78094i bk12: 38a 80510i bk13: 30a 80668i bk14: 78a 78432i bk15: 88a 78697i 
dram_util_bins: 0 0 0 0 0 0 0 0 0 0
dram_eff_bins: 0 0 0 0 0 0 0 0 0 0
mrqq: max=16 avg=0.995509
Memory Partition 19: 
Cache L2_bank_038:
MSHR contents

Cache L2_bank_039:
MSHR contents

In Dram Latency Queue (total = 0): 
DRAM[19]: 16 bks, busW=4 BL=8 CL=12, tRRD=2 tCCD=6, tRCD=12 tRAS=28 tRP=12 tRC=40
n_cmd=81282 n_nop=78350 n_act=163 n_pre=147 n_req=1389 n_rd=1646 n_write=976 bw_util=0.06452
n_activity=10346 dram_eff=0.5069
bk0: 116a 77706i bk1: 98a 77540i bk2: 78a 80607i bk3: 78a 80498i bk4: 134a 78128i bk5: 132a 78594i bk6: 136a 78112i bk7: 128a 77650i bk8: 176a 76643i bk9: 170a 77015i bk10: 88a 77710i bk11: 90a 77613i bk12: 36a 80507i bk13: 26a 80562i bk14: 80a 78293i bk15: 80a 78458i 
dram_util_bins: 0 0 0 0 0 0 0 0 0 0
dram_eff_bins: 0 0 0 0 0 0 0 0 0 0
mrqq: max=16 avg=0.955205

========= L2 cache stats =========
L2_cache_bank[0]: Access = 903, Miss = 390, Miss_rate = 0.432, Pending_hits = 32, Reservation_fails = 100
L2_cache_bank[1]: Access = 1842, Miss = 409, Miss_rate = 0.222, Pending_hits = 32, Reservation_fails = 347
L2_cache_bank[2]: Access = 1045, Miss = 387, Miss_rate = 0.370, Pending_hits = 32, Reservation_fails = 689
L2_cache_bank[3]: Access = 1820, Miss = 406, Miss_rate = 0.223, Pending_hits = 32, Reservation_fails = 251
L2_cache_bank[4]: Access = 911, Miss = 405, Miss_rate = 0.445, Pending_hits = 30, Reservation_fails = 121
L2_cache_bank[5]: Access = 1757, Miss = 420, Miss_rate = 0.239, Pending_hits = 38, Reservation_fails = 226
L2_cache_bank[6]: Access = 818, Miss = 397, Miss_rate = 0.485, Pending_hits = 25, Reservation_fails = 2
L2_cache_bank[7]: Access = 1511, Miss = 413, Miss_rate = 0.273, Pending_hits = 34, Reservation_fails = 210
L2_cache_bank[8]: Access = 882, Miss = 400, Miss_rate = 0.454, Pending_hits = 28, Reservation_fails = 0
L2_cache_bank[9]: Access = 1537, Miss = 425, Miss_rate = 0.277, Pending_hits = 36, Reservation_fails = 169
L2_cache_bank[10]: Access = 891, Miss = 403, Miss_rate = 0.452, Pending_hits = 28, Reservation_fails = 2
L2_cache_bank[11]: Access = 1517, Miss = 423, Miss_rate = 0.279, Pending_hits = 33, Reservation_fails = 205
L2_cache_bank[12]: Access = 913, Miss = 419, Miss_rate = 0.459, Pending_hits = 24, Reservation_fails = 1
L2_cache_bank[13]: Access = 1447, Miss = 378, Miss_rate = 0.261, Pending_hits = 38, Reservation_fails = 202
L2_cache_bank[14]: Access = 900, Miss = 409, Miss_rate = 0.454, Pending_hits = 27, Reservation_fails = 3
L2_cache_bank[15]: Access = 1447, Miss = 387, Miss_rate = 0.267, Pending_hits = 38, Reservation_fails = 226
L2_cache_bank[16]: Access = 881, Miss = 413, Miss_rate = 0.469, Pending_hits = 35, Reservation_fails = 2
L2_cache_bank[17]: Access = 1476, Miss = 404, Miss_rate = 0.274, Pending_hits = 36, Reservation_fails = 142
L2_cache_bank[18]: Access = 866, Miss = 405, Miss_rate = 0.468, Pending_hits = 32, Reservation_fails = 1
L2_cache_bank[19]: Access = 1452, Miss = 390, Miss_rate = 0.269, Pending_hits = 36, Reservation_fails = 198
L2_cache_bank[20]: Access = 918, Miss = 436, Miss_rate = 0.475, Pending_hits = 25, Reservation_fails = 0
L2_cache_bank[21]: Access = 1434, Miss = 395, Miss_rate = 0.275, Pending_hits = 37, Reservation_fails = 200
L2_cache_bank[22]: Access = 875, Miss = 409, Miss_rate = 0.467, Pending_hits = 24, Reservation_fails = 3
L2_cache_bank[23]: Access = 1440, Miss = 407, Miss_rate = 0.283, Pending_hits = 36, Reservation_fails = 199
L2_cache_bank[24]: Access = 1255, Miss = 450, Miss_rate = 0.359, Pending_hits = 41, Reservation_fails = 242
L2_cache_bank[25]: Access = 1398, Miss = 402, Miss_rate = 0.288, Pending_hits = 36, Reservation_fails = 313
L2_cache_bank[26]: Access = 1205, Miss = 414, Miss_rate = 0.344, Pending_hits = 42, Reservation_fails = 368
L2_cache_bank[27]: Access = 1105, Miss = 392, Miss_rate = 0.355, Pending_hits = 28, Reservation_fails = 119
L2_cache_bank[28]: Access = 1240, Miss = 441, Miss_rate = 0.356, Pending_hits = 29, Reservation_fails = 385
L2_cache_bank[29]: Access = 1699, Miss = 390, Miss_rate = 0.230, Pending_hits = 30, Reservation_fails = 45
L2_cache_bank[30]: Access = 1507, Miss = 425, Miss_rate = 0.282, Pending_hits = 27, Reservation_fails = 395
L2_cache_bank[31]: Access = 1647, Miss = 384, Miss_rate = 0.233, Pending_hits = 27, Reservation_fails = 189
L2_cache_bank[32]: Access = 1372, Miss = 429, Miss_rate = 0.313, Pending_hits = 31, Reservation_fails = 126
L2_cache_bank[33]: Access = 1650, Miss = 402, Miss_rate = 0.244, Pending_hits = 33, Reservation_fails = 175
L2_cache_bank[34]: Access = 1380, Miss = 424, Miss_rate = 0.307, Pending_hits = 31, Reservation_fails = 108
L2_cache_bank[35]: Access = 889, Miss = 400, Miss_rate = 0.450, Pending_hits = 24, Reservation_fails = 4
L2_cache_bank[36]: Access = 1908, Miss = 426, Miss_rate = 0.223, Pending_hits = 34, Reservation_fails = 176
L2_cache_bank[37]: Access = 912, Miss = 404, Miss_rate = 0.443, Pending_hits = 32, Reservation_fails = 1
L2_cache_bank[38]: Access = 1909, Miss = 422, Miss_rate = 0.221, Pending_hits = 33, Reservation_fails = 218
L2_cache_bank[39]: Access = 901, Miss = 401, Miss_rate = 0.445, Pending_hits = 26, Reservation_fails = 5
L2_total_cache_accesses = 51460
L2_total_cache_misses = 16336
L2_total_cache_miss_rate = 0.3175
L2_total_cache_pending_hits = 1272
L2_total_cache_reservation_fails = 6368
L2_total_cache_breakdown:
	L2_cache_stats_breakdown[GLOBAL_ACC_R][HIT] = 4056
	L2_cache_stats_breakdown[LOCAL_ACC_R][HIT] = 2760
	L2_cache_stats_breakdown[LOCAL_ACC_R][MISS] = 6139
	L2_cache_stats_breakdown[CONST_ACC_R][HIT] = 384
	L2_cache_stats_breakdown[CONST_ACC_R][HIT_RESERVED] = 12
	L2_cache_stats_breakdown[CONST_ACC_R][MISS] = 4
	L2_cache_stats_breakdown[CONST_ACC_R][RESERVATION_FAIL] = 891
	L2_cache_stats_breakdown[GLOBAL_ACC_W][HIT] = 5022
	L2_cache_stats_breakdown[GLOBAL_ACC_W][HIT_RESERVED] = 1122
	L2_cache_stats_breakdown[GLOBAL_ACC_W][MISS] = 2048
	L2_cache_stats_breakdown[GLOBAL_ACC_W][RESERVATION_FAIL] = 92
	L2_cache_stats_breakdown[LOCAL_ACC_W][HIT] = 4150
	L2_cache_stats_breakdown[LOCAL_ACC_W][MISS] = 8086
	L2_cache_stats_breakdown[LOCAL_ACC_W][RESERVATION_FAIL] = 527
	L2_cache_stats_breakdown[L1_WRBK_ACC][HIT] = 1976
	L2_cache_stats_breakdown[L1_WRBK_ACC][MISS] = 12
	L2_cache_stats_breakdown[INST_ACC_R][HIT] = 15504
	L2_cache_stats_breakdown[INST_ACC_R][HIT_RESERVED] = 138
	L2_cache_stats_breakdown[INST_ACC_R][MISS] = 47
	L2_cache_stats_breakdown[INST_ACC_R][RESERVATION_FAIL] = 4858
L2_cache_data_port_util = 0.051
L2_cache_fill_port_util = 0.027

icnt_total_pkts_mem_to_simt=164848
icnt_total_pkts_simt_to_mem=124412
LD_mem_lat_dist  0 0 0 0 0 0 0 0 0 0 0 0 0 0 0 0 0 0 0 0 0 0 0 0 0 0 0
ST_mem_lat_dist  0 0 0 0 0 0 0 0 0 0 0 0 0 0 0 0 0 0 0 0 0 0 0 0 0 0 0
----------------------------Interconnect-DETAILS--------------------------------
Class 0:
Packet latency average = 24.761
	minimum = 6
	maximum = 892
Network latency average = 18.8512
	minimum = 6
	maximum = 804
Slowest packet = 3146
Flit latency average = 17.3785
	minimum = 6
	maximum = 804
Slowest flit = 60095
Fragmentation average = 0.23815
	minimum = 0
	maximum = 440
Injected packet rate average = 0.0136591
	minimum = 0.00633343 (at node 48)
	maximum = 0.0299458 (at node 118)
Accepted packet rate average = 0.0136591
	minimum = 0.00618727 (at node 48)
	maximum = 0.0310013 (at node 118)
Injected flit rate average = 0.0391455
	minimum = 0.017149 (at node 48)
	maximum = 0.11215 (at node 116)
Accepted flit rate average= 0.0391455
	minimum = 0.0179122 (at node 48)
	maximum = 0.0660626 (at node 118)
Injected packet length average = 2.86589
Accepted packet length average = 2.86589
Total in-flight flits = 0 (0 measured)
====== Overall Traffic Statistics ======
====== Traffic class 0 ======
Packet latency average = 24.761 (1 samples)
	minimum = 6 (1 samples)
	maximum = 892 (1 samples)
Network latency average = 18.8512 (1 samples)
	minimum = 6 (1 samples)
	maximum = 804 (1 samples)
Flit latency average = 17.3785 (1 samples)
	minimum = 6 (1 samples)
	maximum = 804 (1 samples)
Fragmentation average = 0.23815 (1 samples)
	minimum = 0 (1 samples)
	maximum = 440 (1 samples)
Injected packet rate average = 0.0136591 (1 samples)
	minimum = 0.00633343 (1 samples)
	maximum = 0.0299458 (1 samples)
Accepted packet rate average = 0.0136591 (1 samples)
	minimum = 0.00618727 (1 samples)
	maximum = 0.0310013 (1 samples)
Injected flit rate average = 0.0391455 (1 samples)
	minimum = 0.017149 (1 samples)
	maximum = 0.11215 (1 samples)
Accepted flit rate average = 0.0391455 (1 samples)
	minimum = 0.0179122 (1 samples)
	maximum = 0.0660626 (1 samples)
Injected packet size average = 2.86589 (1 samples)
Accepted packet size average = 2.86589 (1 samples)
Hops average = 1 (1 samples)
----------------------------END-of-Interconnect-DETAILS-------------------------


gpgpu_simulation_time = 0 days, 0 hrs, 3 min, 12 sec (192 sec)
gpgpu_simulation_rate = 244097 (inst/sec)
gpgpu_simulation_rate = 320 (cycle/sec)
GPGPU-Sim: synchronize waiting for inactive GPU simulation
GPGPU-Sim API: Stream Manager State
GPGPU-Sim: detected inactive GPU simulation thread

checksum=75ef40cb5b8e
Kernel Time: 190984.296875 
