

        *** GPGPU-Sim Simulator Version 3.2.2  [build 0] ***


GPGPU-Sim PTX: simulation mode 0 (can change with PTX_SIM_MODE_FUNC environment variable:
               1=functional simulation only, 0=detailed performance simulator)
GPGPU-Sim: Configuration options:

-network_mode                           1 # Interconnection network mode
-inter_config_file   config_fermi_islip.icnt # Interconnection network config file
-gpgpu_ptx_use_cuobjdump                    1 # Use cuobjdump to extract ptx and sass from binaries
-gpgpu_experimental_lib_support                    0 # Try to extract code from cuda libraries [Broken because of unknown cudaGetExportTable]
-gpgpu_ptx_convert_to_ptxplus                    0 # Convert SASS (native ISA) to ptxplus and run ptxplus
-gpgpu_ptx_force_max_capability                   20 # Force maximum compute capability
-gpgpu_ptx_inst_debug_to_file                    0 # Dump executed instructions' debug information to file
-gpgpu_ptx_inst_debug_file       inst_debug.txt # Executed instructions' debug output file
-gpgpu_ptx_inst_debug_thread_uid                    1 # Thread UID for executed instructions' debug output
-gpgpu_simd_model                       1 # 1 = post-dominator
-gpgpu_shader_core_pipeline              1536:32 # shader core pipeline config, i.e., {<nthread>:<warpsize>}
-gpgpu_tex_cache:l1  4:128:24,L:R:m:N:L,F:128:4,128:2 # per-shader L1 texture cache  (READ-ONLY) config  {<nsets>:<bsize>:<assoc>,<rep>:<wr>:<alloc>:<wr_alloc>,<mshr>:<N>:<merge>,<mq>:<rf>}
-gpgpu_const_cache:l1 64:64:2,L:R:f:N:L,A:2:32,4 # per-shader L1 constant memory cache  (READ-ONLY) config  {<nsets>:<bsize>:<assoc>,<rep>:<wr>:<alloc>:<wr_alloc>,<mshr>:<N>:<merge>,<mq>} 
-gpgpu_cache:il1     4:128:4,L:R:f:N:L,A:2:32,4 # shader L1 instruction cache config  {<nsets>:<bsize>:<assoc>,<rep>:<wr>:<alloc>:<wr_alloc>,<mshr>:<N>:<merge>,<mq>} 
-gpgpu_cache:dl1     32:128:4,L:L:m:N:H,A:32:8,8 # per-shader L1 data cache config  {<nsets>:<bsize>:<assoc>,<rep>:<wr>:<alloc>:<wr_alloc>,<mshr>:<N>:<merge>,<mq> | none}
-gpgpu_cache:dl1PrefL1                 none # per-shader L1 data cache config  {<nsets>:<bsize>:<assoc>,<rep>:<wr>:<alloc>:<wr_alloc>,<mshr>:<N>:<merge>,<mq> | none}
-gpgpu_cache:dl1PreShared                 none # per-shader L1 data cache config  {<nsets>:<bsize>:<assoc>,<rep>:<wr>:<alloc>:<wr_alloc>,<mshr>:<N>:<merge>,<mq> | none}
-gmem_skip_L1D                          0 # global memory access skip L1D cache (implements -Xptxas -dlcm=cg, default=no skip)
-gpgpu_perfect_mem                      0 # enable perfect memory mode (no cache miss)
-n_regfile_gating_group                    4 # group of lanes that should be read/written together)
-gpgpu_clock_gated_reg_file                    0 # enable clock gated reg file for power calculations
-gpgpu_clock_gated_lanes                    0 # enable clock gated lanes for power calculations
-gpgpu_shader_registers                32768 # Number of registers per shader core. Limits number of concurrent CTAs. (default 8192)
-gpgpu_shader_cta                       8 # Maximum number of concurrent CTAs in shader (default 8)
-gpgpu_num_cta_barriers                   16 # Maximum number of named barriers per CTA (default 16)
-gpgpu_n_clusters                      24 # number of processing clusters
-gpgpu_n_cores_per_cluster                    1 # number of simd cores per cluster
-gpgpu_n_cluster_ejection_buffer_size                    8 # number of packets in ejection buffer
-gpgpu_n_ldst_response_buffer_size                    2 # number of response packets in ld/st unit ejection buffer
-gpgpu_shmem_size                   16384 # Size of shared memory per shader core (default 16kB)
-gpgpu_shmem_size                   49152 # Size of shared memory per shader core (default 16kB)
-gpgpu_shmem_size_PrefL1                16384 # Size of shared memory per shader core (default 16kB)
-gpgpu_shmem_size_PrefShared                16384 # Size of shared memory per shader core (default 16kB)
-gpgpu_shmem_num_banks                   32 # Number of banks in the shared memory in each shader core (default 16)
-gpgpu_shmem_limited_broadcast                    0 # Limit shared memory to do one broadcast per cycle (default on)
-gpgpu_shmem_warp_parts                    1 # Number of portions a warp is divided into for shared memory bank conflict check 
-gpgpu_warpdistro_shader                   -1 # Specify which shader core to collect the warp size distribution from
-gpgpu_warp_issue_shader                    0 # Specify which shader core to collect the warp issue distribution from
-gpgpu_local_mem_map                    1 # Mapping from local memory space address to simulated GPU physical address space (default = enabled)
-gpgpu_num_reg_banks                   16 # Number of register banks (default = 8)
-gpgpu_reg_bank_use_warp_id                    0 # Use warp ID in mapping registers to banks (default = off)
-gpgpu_operand_collector_num_units_sp                    6 # number of collector units (default = 4)
-gpgpu_operand_collector_num_units_sfu                    8 # number of collector units (default = 4)
-gpgpu_operand_collector_num_units_mem                    2 # number of collector units (default = 2)
-gpgpu_operand_collector_num_units_gen                    0 # number of collector units (default = 0)
-gpgpu_operand_collector_num_in_ports_sp                    2 # number of collector unit in ports (default = 1)
-gpgpu_operand_collector_num_in_ports_sfu                    1 # number of collector unit in ports (default = 1)
-gpgpu_operand_collector_num_in_ports_mem                    1 # number of collector unit in ports (default = 1)
-gpgpu_operand_collector_num_in_ports_gen                    0 # number of collector unit in ports (default = 0)
-gpgpu_operand_collector_num_out_ports_sp                    2 # number of collector unit in ports (default = 1)
-gpgpu_operand_collector_num_out_ports_sfu                    1 # number of collector unit in ports (default = 1)
-gpgpu_operand_collector_num_out_ports_mem                    1 # number of collector unit in ports (default = 1)
-gpgpu_operand_collector_num_out_ports_gen                    0 # number of collector unit in ports (default = 0)
-gpgpu_coalesce_arch                   13 # Coalescing arch (default = 13, anything else is off for now)
-gpgpu_num_sched_per_core                    2 # Number of warp schedulers per core
-gpgpu_max_insn_issue_per_warp                    1 # Max number of instructions that can be issued per warp in one cycle by scheduler
-gpgpu_simt_core_sim_order                    1 # Select the simulation order of cores in a cluster (0=Fix, 1=Round-Robin)
-gpgpu_pipeline_widths        2,1,1,2,1,1,2 # Pipeline widths ID_OC_SP,ID_OC_SFU,ID_OC_MEM,OC_EX_SP,OC_EX_SFU,OC_EX_MEM,EX_WB
-gpgpu_num_sp_units                     2 # Number of SP units (default=1)
-gpgpu_num_sfu_units                    1 # Number of SF units (default=1)
-gpgpu_num_mem_units                    1 # Number if ldst units (default=1) WARNING: not hooked up to anything
-gpgpu_scheduler                      gto # Scheduler configuration: < lrr | gto | two_level_active > If two_level_active:<num_active_warps>:<inner_prioritization>:<outer_prioritization>For complete list of prioritization values see shader.h enum scheduler_prioritization_typeDefault: gto
-gpgpu_dram_scheduler                    1 # 0 = fifo, 1 = FR-FCFS (defaul)
-gpgpu_dram_partition_queues              8:8:8:8 # i2$:$2d:d2$:$2i
-l2_ideal                               0 # Use a ideal L2 cache that always hit
-gpgpu_cache:dl2     64:128:8,L:B:m:W:L,A:32:4,4:0,32 # unified banked L2 data cache config  {<nsets>:<bsize>:<assoc>,<rep>:<wr>:<alloc>:<wr_alloc>,<mshr>:<N>:<merge>,<mq>}
-gpgpu_cache:dl2_texture_only                    0 # L2 cache used for texture only
-gpgpu_n_mem                            6 # number of memory modules (e.g. memory controllers) in gpu
-gpgpu_n_sub_partition_per_mchannel                    2 # number of memory subpartition in each memory module
-gpgpu_n_mem_per_ctrlr                    2 # number of memory chips per memory controller
-gpgpu_memlatency_stat                   14 # track and display latency statistics 0x2 enables MC, 0x4 enables queue logs
-gpgpu_frfcfs_dram_sched_queue_size                   16 # 0 = unlimited (default); # entries per chip
-gpgpu_dram_return_queue_size                  116 # 0 = unlimited (default); # entries per chip
-gpgpu_dram_buswidth                    4 # default = 4 bytes (8 bytes per cycle at DDR)
-gpgpu_dram_burst_length                    8 # Burst length of each DRAM request (default = 4 data bus cycle)
-dram_data_command_freq_ratio                    4 # Frequency ratio between DRAM data bus and command bus (default = 2 times, i.e. DDR)
-gpgpu_dram_timing_opt nbk=16:CCD=2:RRD=6:RCD=12:RAS=28:RP=12:RC=40: CL=12:WL=4:CDLR=5:WR=12:nbkgrp=4:CCDL=3:RTPL=2 # DRAM timing parameters = {nbk:tCCD:tRRD:tRCD:tRAS:tRP:tRC:CL:WL:tCDLR:tWR:nbkgrp:tCCDL:tRTPL}
-rop_latency                          120 # ROP queue latency (default 85)
-dram_latency                         100 # DRAM latency (default 30)
-gpgpu_mem_addr_mapping dramid@8;00000000.00000000.00000000.00000000.0000RRRR.RRRRRRRR.BBBCCCCB.CCSSSSSS # mapping memory address to dram model {dramid@<start bit>;<memory address map>}
-gpgpu_mem_addr_test                    0 # run sweep test to check address mapping for aliased address
-gpgpu_mem_address_mask                    1 # 0 = old addressing mask, 1 = new addressing mask, 2 = new add. mask + flipped bank sel and chip sel bits
-gpuwattch_xml_file  gpuwattch_gtx480.xml # GPUWattch XML file
-power_simulation_enabled                    1 # Turn on power simulator (1=On, 0=Off)
-power_per_cycle_dump                    0 # Dump detailed power output each cycle
-power_trace_enabled                    0 # produce a file for the power trace (1=On, 0=Off)
-power_trace_zlevel                     6 # Compression level of the power trace output log (0=no comp, 9=highest)
-steady_power_levels_enabled                    0 # produce a file for the steady power levels (1=On, 0=Off)
-steady_state_definition                  8:4 # allowed deviation:number of samples
-gpgpu_max_cycle                        0 # terminates gpu simulation early (0 = no limit)
-gpgpu_max_insn                         0 # terminates gpu simulation early (0 = no limit)
-gpgpu_max_cta                          0 # terminates gpu simulation early (0 = no limit)
-gpgpu_runtime_stat                   500 # display runtime statistics such as dram utilization {<freq>:<flag>}
-liveness_message_freq                    1 # Minimum number of seconds between simulation liveness messages (0 = always print)
-gpgpu_flush_l1_cache                    0 # Flush L1 cache at the end of each kernel call
-gpgpu_flush_l2_cache                    0 # Flush L2 cache at the end of each kernel call
-gpgpu_deadlock_detect                    1 # Stop the simulation at deadlock (1=on (default), 0=off)
-gpgpu_ptx_instruction_classification                    0 # if enabled will classify ptx instruction types per kernel (Max 255 kernels now)
-gpgpu_ptx_sim_mode                     0 # Select between Performance (default) or Functional simulation (1)
-gpgpu_clock_domains 700.0:700.0:700.0:924.0 # Clock Domain Frequencies in MhZ {<Core Clock>:<ICNT Clock>:<L2 Clock>:<DRAM Clock>}
-gpgpu_max_concurrent_kernel                    8 # maximum kernels that can run concurrently on GPU
-gpgpu_cflog_interval                    0 # Interval between each snapshot in control flow logger
-visualizer_enabled                     0 # Turn on visualizer output (1=On, 0=Off)
-visualizer_outputfile                 NULL # Specifies the output log file for visualizer
-visualizer_zlevel                      6 # Compression level of the visualizer output log (0=no comp, 9=highest)
-trace_enabled                          0 # Turn on traces
-trace_components                    none # comma seperated list of traces to enable. Complete list found in trace_streams.tup. Default none
-trace_sampling_core                    0 # The core which is printed using CORE_DPRINTF. Default 0
-trace_sampling_memory_partition                   -1 # The memory partition which is printed using MEMPART_DPRINTF. Default -1 (i.e. all)
-enable_ptx_file_line_stats                    1 # Turn on PTX source line statistic profiling. (1 = On)
-ptx_line_stats_filename gpgpu_inst_stats.txt # Output file for PTX source line statistics.
-save_embedded_ptx                      0 # saves ptx files embedded in binary as <n>.ptx
-keep                                   0 # keep intermediate files created by GPGPU-Sim when interfacing with external programs
-gpgpu_ptx_save_converted_ptxplus                    0 # Saved converted ptxplus to a file
-ptx_opcode_latency_int         4,13,4,5,145 # Opcode latencies for integers <ADD,MAX,MUL,MAD,DIV>Default 1,1,19,25,145
-ptx_opcode_latency_fp          4,13,4,5,39 # Opcode latencies for single precision floating points <ADD,MAX,MUL,MAD,DIV>Default 1,1,1,1,30
-ptx_opcode_latency_dp         8,19,8,8,330 # Opcode latencies for double precision floating points <ADD,MAX,MUL,MAD,DIV>Default 8,8,8,8,335
-ptx_opcode_initiation_int            1,2,2,1,8 # Opcode initiation intervals for integers <ADD,MAX,MUL,MAD,DIV>Default 1,1,4,4,32
-ptx_opcode_initiation_fp            1,2,1,1,4 # Opcode initiation intervals for single precision floating points <ADD,MAX,MUL,MAD,DIV>Default 1,1,1,1,5
-ptx_opcode_initiation_dp         8,16,8,8,130 # Opcode initiation intervals for double precision floating points <ADD,MAX,MUL,MAD,DIV>Default 8,8,8,8,130
DRAM Timing Options:
nbk                                    16 # number of banks
CCD                                     2 # column to column delay
RRD                                     6 # minimal delay between activation of rows in different banks
RCD                                    12 # row to column delay
RAS                                    28 # time needed to activate row
RP                                     12 # time needed to precharge (deactivate) row
RC                                     40 # row cycle time
CDLR                                    5 # switching from write to read (changes tWTR)
WR                                     12 # last data-in to row precharge
CL                                     12 # CAS latency
WL                                      4 # Write latency
nbkgrp                                  4 # number of bank groups
CCDL                                    3 # column to column delay between accesses to different bank groups
RTPL                                    2 # read to precharge delay between accesses to different bank groups
Total number of memory sub partition = 12
addr_dec_mask[CHIP]  = 0000000000000000 	high:64 low:0
addr_dec_mask[BK]    = 000000000000e100 	high:16 low:8
addr_dec_mask[ROW]   = 000000000fff0000 	high:28 low:16
addr_dec_mask[COL]   = 0000000000001eff 	high:13 low:0
addr_dec_mask[BURST] = 000000000000003f 	high:6 low:0
sub_partition_id_mask = 0000000000000100
GPGPU-Sim uArch: clock freqs: 700000000.000000:700000000.000000:700000000.000000:924000000.000000
GPGPU-Sim uArch: clock periods: 0.00000000142857142857:0.00000000142857142857:0.00000000142857142857:0.00000000108225108225
*** Initializing Memory Statistics ***
GPGPU-Sim uArch: interconnect node map (shaderID+MemID to icntID)
GPGPU-Sim uArch: Memory nodes ID start from index: 24
GPGPU-Sim uArch:    0   1   2   3   4   5
GPGPU-Sim uArch:    6   7   8   9  10  11
GPGPU-Sim uArch:   12  13  14  15  16  17
GPGPU-Sim uArch:   18  19  20  21  22  23
GPGPU-Sim uArch:   24  25  26  27  28  29
GPGPU-Sim uArch:   30  31  32  33  34  35
GPGPU-Sim uArch: interconnect node reverse map (icntID to shaderID+MemID)
GPGPU-Sim uArch: Memory nodes start from ID: 24
GPGPU-Sim uArch:    0   1   2   3   4   5
GPGPU-Sim uArch:    6   7   8   9  10  11
GPGPU-Sim uArch:   12  13  14  15  16  17
GPGPU-Sim uArch:   18  19  20  21  22  23
GPGPU-Sim uArch:   24  25  26  27  28  29
GPGPU-Sim uArch:   30  31  32  33  34  35
5f50f4a99376f06d6117c4587fc14674  /root/ispass2009-benchmarks/bin/release/RAY
GPGPU-Sim uArch: performance model initialization complete.
GPGPU-Sim PTX: __cudaRegisterFatBinary, fat_cubin_handle = 1, filename=rayTracing.cu
self exe links to: /root/ispass2009-benchmarks/bin/release/RAY
Running md5sum using "md5sum /root/ispass2009-benchmarks/bin/release/RAY "
Running cuobjdump using "$CUDA_INSTALL_PATH/bin/cuobjdump -ptx -elf -sass /root/ispass2009-benchmarks/bin/release/RAY > _cuobjdump_complete_output_dNfMkO"
Parsing file _cuobjdump_complete_output_dNfMkO
######### cuobjdump parser ########
## Adding new section PTX
Adding ptx filename: _cuobjdump_1.ptx
Adding arch: sm_30
Adding identifier: rayTracing.cu
## Adding new section ELF
Adding arch: sm_30
Adding identifier: rayTracing.cu
## Adding new section ELF
Adding arch: sm_20
Adding identifier: rayTracing.cu
## Adding new section PTX
Adding ptx filename: _cuobjdump_2.ptx
Adding arch: sm_20
Adding identifier: rayTracing.cu
## Adding new section PTX
Adding ptx filename: _cuobjdump_3.ptx
Adding arch: sm_10
Adding identifier: rayTracing.cu
## Adding new section ELF
Adding arch: sm_10
Adding identifier: rayTracing.cu
Done parsing!!!
GPGPU-Sim PTX: __cudaRegisterFunction _Z6renderPjP4Nodejjff : hostFun 0x0x40ad70, fat_cubin_handle = 1
GPGPU-Sim PTX: allocating constant region for "MView" from 0x100 to 0x130 (global memory space) 1
GPGPU-Sim PTX: allocating constant region for "cnode" from 0x180 to 0x220 (global memory space) 2
GPGPU-Sim PTX: allocating stack frame region for .param "func_retval0" from 0x0 to 0xc
GPGPU-Sim PTX: allocating stack frame region for .param "_Zmi6float3S__param_0" from 0xc to 0x18
GPGPU-Sim PTX: allocating stack frame region for .param "_Zmi6float3S__param_1" from 0x18 to 0x24
GPGPU-Sim PTX: instruction assembly for function '_Zmi6float3S_'...   done.
GPGPU-Sim PTX: finding reconvergence points for '_Zmi6float3S_'...
GPGPU-Sim PTX: Finding dominators for '_Zmi6float3S_'...
GPGPU-Sim PTX: Finding immediate dominators for '_Zmi6float3S_'...
GPGPU-Sim PTX: Finding postdominators for '_Zmi6float3S_'...
GPGPU-Sim PTX: Finding immediate postdominators for '_Zmi6float3S_'...
GPGPU-Sim PTX: pre-decoding instructions for '_Zmi6float3S_'...
GPGPU-Sim PTX: reconvergence points for _Zmi6float3S_...
GPGPU-Sim PTX: ... end of reconvergence points for _Zmi6float3S_
GPGPU-Sim PTX: ... done pre-decoding instructions for '_Zmi6float3S_'.
GPGPU-Sim PTX: allocating stack frame region for .param "func_retval0" from 0x0 to 0xc
GPGPU-Sim PTX: allocating stack frame region for .param "_Z9normalize6float3_param_0" from 0xc to 0x18
GPGPU-Sim PTX: instruction assembly for function '_Z9normalize6float3'...   done.
GPGPU-Sim PTX: finding reconvergence points for '_Z9normalize6float3'...
GPGPU-Sim PTX: Finding dominators for '_Z9normalize6float3'...
GPGPU-Sim PTX: Finding immediate dominators for '_Z9normalize6float3'...
GPGPU-Sim PTX: Finding postdominators for '_Z9normalize6float3'...
GPGPU-Sim PTX: Finding immediate postdominators for '_Z9normalize6float3'...
GPGPU-Sim PTX: pre-decoding instructions for '_Z9normalize6float3'...
GPGPU-Sim PTX: reconvergence points for _Z9normalize6float3...
GPGPU-Sim PTX: ... end of reconvergence points for _Z9normalize6float3
GPGPU-Sim PTX: ... done pre-decoding instructions for '_Z9normalize6float3'.
GPGPU-Sim PTX: allocating stack frame region for .param "func_retval0" from 0x0 to 0x4
GPGPU-Sim PTX: allocating stack frame region for .param "_Z18intersectionSphere5Rayon6float3f_param_0" from 0x4 to 0x1c
GPGPU-Sim PTX: allocating stack frame region for .param "_Z18intersectionSphere5Rayon6float3f_param_1" from 0x1c to 0x28
GPGPU-Sim PTX: allocating stack frame region for .param "_Z18intersectionSphere5Rayon6float3f_param_2" from 0x28 to 0x2c
GPGPU-Sim PTX: instruction assembly for function '_Z18intersectionSphere5Rayon6float3f'...   done.
GPGPU-Sim PTX: finding reconvergence points for '_Z18intersectionSphere5Rayon6float3f'...
GPGPU-Sim PTX: Finding dominators for '_Z18intersectionSphere5Rayon6float3f'...
GPGPU-Sim PTX: Finding immediate dominators for '_Z18intersectionSphere5Rayon6float3f'...
GPGPU-Sim PTX: Finding postdominators for '_Z18intersectionSphere5Rayon6float3f'...
GPGPU-Sim PTX: Finding immediate postdominators for '_Z18intersectionSphere5Rayon6float3f'...
GPGPU-Sim PTX: pre-decoding instructions for '_Z18intersectionSphere5Rayon6float3f'...
GPGPU-Sim PTX: reconvergence points for _Z18intersectionSphere5Rayon6float3f...
GPGPU-Sim PTX:  1 (potential) branch divergence @  PC=0x1b8 (_1.ptx:122) @%p3 bra BB2_3;
GPGPU-Sim PTX:    immediate post dominator      @ 
GPGPU-Sim PTX:  2 (potential) branch divergence @  PC=0x1d8 (_1.ptx:129) @%p4 bra BB2_3;
GPGPU-Sim PTX:    immediate post dominator      @ 
GPGPU-Sim PTX: ... end of reconvergence points for _Z18intersectionSphere5Rayon6float3f
GPGPU-Sim PTX: ... done pre-decoding instructions for '_Z18intersectionSphere5Rayon6float3f'.
GPGPU-Sim PTX: allocating stack frame region for .param "func_retval0" from 0x0 to 0x4
GPGPU-Sim PTX: allocating stack frame region for .param "_Z16intersectionPlan5Rayon6float3S0__param_0" from 0x4 to 0x1c
GPGPU-Sim PTX: allocating stack frame region for .param "_Z16intersectionPlan5Rayon6float3S0__param_1" from 0x1c to 0x28
GPGPU-Sim PTX: allocating stack frame region for .param "_Z16intersectionPlan5Rayon6float3S0__param_2" from 0x28 to 0x34
GPGPU-Sim PTX: instruction assembly for function '_Z16intersectionPlan5Rayon6float3S0_'...   done.
GPGPU-Sim PTX: finding reconvergence points for '_Z16intersectionPlan5Rayon6float3S0_'...
GPGPU-Sim PTX: Finding dominators for '_Z16intersectionPlan5Rayon6float3S0_'...
GPGPU-Sim PTX: Finding immediate dominators for '_Z16intersectionPlan5Rayon6float3S0_'...
GPGPU-Sim PTX: Finding postdominators for '_Z16intersectionPlan5Rayon6float3S0_'...
GPGPU-Sim PTX: Finding immediate postdominators for '_Z16intersectionPlan5Rayon6float3S0_'...
GPGPU-Sim PTX: pre-decoding instructions for '_Z16intersectionPlan5Rayon6float3S0_'...
GPGPU-Sim PTX: reconvergence points for _Z16intersectionPlan5Rayon6float3S0_...
GPGPU-Sim PTX:  1 (potential) branch divergence @  PC=0x2c0 (_1.ptx:185) @%p1 bra BB3_2;
GPGPU-Sim PTX:    immediate post dominator      @ 
GPGPU-Sim PTX: ... end of reconvergence points for _Z16intersectionPlan5Rayon6float3S0_
GPGPU-Sim PTX: ... done pre-decoding instructions for '_Z16intersectionPlan5Rayon6float3S0_'.
GPGPU-Sim PTX: allocating stack frame region for .param "func_retval0" from 0x0 to 0xc
GPGPU-Sim PTX: allocating stack frame region for .param "_Z10getNormale6float3S__param_0" from 0xc to 0x18
GPGPU-Sim PTX: allocating stack frame region for .param "_Z10getNormale6float3S__param_1" from 0x18 to 0x24
GPGPU-Sim PTX: instruction assembly for function '_Z10getNormale6float3S_'...   done.
GPGPU-Sim PTX: finding reconvergence points for '_Z10getNormale6float3S_'...
GPGPU-Sim PTX: Finding dominators for '_Z10getNormale6float3S_'...
GPGPU-Sim PTX: Finding immediate dominators for '_Z10getNormale6float3S_'...
GPGPU-Sim PTX: Finding postdominators for '_Z10getNormale6float3S_'...
GPGPU-Sim PTX: Finding immediate postdominators for '_Z10getNormale6float3S_'...
GPGPU-Sim PTX: pre-decoding instructions for '_Z10getNormale6float3S_'...
GPGPU-Sim PTX: reconvergence points for _Z10getNormale6float3S_...
GPGPU-Sim PTX: ... end of reconvergence points for _Z10getNormale6float3S_
GPGPU-Sim PTX: ... done pre-decoding instructions for '_Z10getNormale6float3S_'.
GPGPU-Sim PTX: allocating stack frame region for .param "func_retval0" from 0x0 to 0xc
GPGPU-Sim PTX: allocating stack frame region for .param "_Z11getNormaleP6float3_param_0" from 0xc to 0x18
GPGPU-Sim PTX: instruction assembly for function '_Z11getNormaleP6float3'...   done.
GPGPU-Sim PTX: finding reconvergence points for '_Z11getNormaleP6float3'...
GPGPU-Sim PTX: Finding dominators for '_Z11getNormaleP6float3'...
GPGPU-Sim PTX: Finding immediate dominators for '_Z11getNormaleP6float3'...
GPGPU-Sim PTX: Finding postdominators for '_Z11getNormaleP6float3'...
GPGPU-Sim PTX: Finding immediate postdominators for '_Z11getNormaleP6float3'...
GPGPU-Sim PTX: pre-decoding instructions for '_Z11getNormaleP6float3'...
GPGPU-Sim PTX: reconvergence points for _Z11getNormaleP6float3...
GPGPU-Sim PTX: ... end of reconvergence points for _Z11getNormaleP6float3
GPGPU-Sim PTX: ... done pre-decoding instructions for '_Z11getNormaleP6float3'.
GPGPU-Sim PTX: allocating stack frame region for .param "func_retval0" from 0x0 to 0xc
GPGPU-Sim PTX: allocating stack frame region for .param "_Z3mul10matrice3x46float3_param_0" from 0xc to 0x3c
GPGPU-Sim PTX: allocating stack frame region for .param "_Z3mul10matrice3x46float3_param_1" from 0x3c to 0x48
GPGPU-Sim PTX: instruction assembly for function '_Z3mul10matrice3x46float3'...   done.
GPGPU-Sim PTX: finding reconvergence points for '_Z3mul10matrice3x46float3'...
GPGPU-Sim PTX: Finding dominators for '_Z3mul10matrice3x46float3'...
GPGPU-Sim PTX: Finding immediate dominators for '_Z3mul10matrice3x46float3'...
GPGPU-Sim PTX: Finding postdominators for '_Z3mul10matrice3x46float3'...
GPGPU-Sim PTX: Finding immediate postdominators for '_Z3mul10matrice3x46float3'...
GPGPU-Sim PTX: pre-decoding instructions for '_Z3mul10matrice3x46float3'...
GPGPU-Sim PTX: reconvergence points for _Z3mul10matrice3x46float3...
GPGPU-Sim PTX: ... end of reconvergence points for _Z3mul10matrice3x46float3
GPGPU-Sim PTX: ... done pre-decoding instructions for '_Z3mul10matrice3x46float3'.
GPGPU-Sim PTX: allocating stack frame region for .param "func_retval0" from 0x0 to 0x10
GPGPU-Sim PTX: allocating stack frame region for .param "_Z3mul10matrice3x46float4_param_0" from 0x10 to 0x40
GPGPU-Sim PTX: allocating stack frame region for .param "_Z3mul10matrice3x46float4_param_1" from 0x40 to 0x50
GPGPU-Sim PTX: instruction assembly for function '_Z3mul10matrice3x46float4'...   done.
GPGPU-Sim PTX: finding reconvergence points for '_Z3mul10matrice3x46float4'...
GPGPU-Sim PTX: Finding dominators for '_Z3mul10matrice3x46float4'...
GPGPU-Sim PTX: Finding immediate dominators for '_Z3mul10matrice3x46float4'...
GPGPU-Sim PTX: Finding postdominators for '_Z3mul10matrice3x46float4'...
GPGPU-Sim PTX: Finding immediate postdominators for '_Z3mul10matrice3x46float4'...
GPGPU-Sim PTX: pre-decoding instructions for '_Z3mul10matrice3x46float4'...
GPGPU-Sim PTX: reconvergence points for _Z3mul10matrice3x46float4...
GPGPU-Sim PTX: ... end of reconvergence points for _Z3mul10matrice3x46float4
GPGPU-Sim PTX: ... done pre-decoding instructions for '_Z3mul10matrice3x46float4'.
GPGPU-Sim PTX: allocating stack frame region for .param "func_retval0" from 0x0 to 0x4
GPGPU-Sim PTX: allocating stack frame region for .param "_Z14rgbaFloatToInt6float4_param_0" from 0x4 to 0x14
GPGPU-Sim PTX: instruction assembly for function '_Z14rgbaFloatToInt6float4'...   done.
GPGPU-Sim PTX: finding reconvergence points for '_Z14rgbaFloatToInt6float4'...
GPGPU-Sim PTX: Finding dominators for '_Z14rgbaFloatToInt6float4'...
GPGPU-Sim PTX: Finding immediate dominators for '_Z14rgbaFloatToInt6float4'...
GPGPU-Sim PTX: Finding postdominators for '_Z14rgbaFloatToInt6float4'...
GPGPU-Sim PTX: Finding immediate postdominators for '_Z14rgbaFloatToInt6float4'...
GPGPU-Sim PTX: pre-decoding instructions for '_Z14rgbaFloatToInt6float4'...
GPGPU-Sim PTX: reconvergence points for _Z14rgbaFloatToInt6float4...
GPGPU-Sim PTX: ... end of reconvergence points for _Z14rgbaFloatToInt6float4
GPGPU-Sim PTX: ... done pre-decoding instructions for '_Z14rgbaFloatToInt6float4'.
GPGPU-Sim PTX: allocating stack frame region for .param "func_retval0" from 0x0 to 0x4
GPGPU-Sim PTX: allocating stack frame region for .param "_Z12notShadowRayP4Node6float3S1_f_param_0" from 0x4 to 0xc
GPGPU-Sim PTX: allocating stack frame region for .param "_Z12notShadowRayP4Node6float3S1_f_param_1" from 0xc to 0x18
GPGPU-Sim PTX: allocating stack frame region for .param "_Z12notShadowRayP4Node6float3S1_f_param_2" from 0x18 to 0x24
GPGPU-Sim PTX: allocating stack frame region for .param "_Z12notShadowRayP4Node6float3S1_f_param_3" from 0x24 to 0x28
GPGPU-Sim PTX: instruction assembly for function '_Z12notShadowRayP4Node6float3S1_f'...   done.
GPGPU-Sim PTX: finding reconvergence points for '_Z12notShadowRayP4Node6float3S1_f'...
GPGPU-Sim PTX: Finding dominators for '_Z12notShadowRayP4Node6float3S1_f'...
GPGPU-Sim PTX: Finding immediate dominators for '_Z12notShadowRayP4Node6float3S1_f'...
GPGPU-Sim PTX: Finding postdominators for '_Z12notShadowRayP4Node6float3S1_f'...
GPGPU-Sim PTX: Finding immediate postdominators for '_Z12notShadowRayP4Node6float3S1_f'...
GPGPU-Sim PTX: pre-decoding instructions for '_Z12notShadowRayP4Node6float3S1_f'...
GPGPU-Sim PTX: reconvergence points for _Z12notShadowRayP4Node6float3S1_f...
GPGPU-Sim PTX:  1 (potential) branch divergence @  PC=0x7c8 (_1.ptx:471) @%p2 bra BB9_4;
GPGPU-Sim PTX:    immediate post dominator      @  PC=0x938 (_1.ptx:551) mov.f32 %f26, %f78;
GPGPU-Sim PTX:  2 (potential) branch divergence @  PC=0x810 (_1.ptx:486) @%p3 bra BB9_7;
GPGPU-Sim PTX:    immediate post dominator      @  PC=0x938 (_1.ptx:551) mov.f32 %f26, %f78;
GPGPU-Sim PTX:  3 (potential) branch divergence @  PC=0x868 (_1.ptx:505) bra.uni BB9_8;
GPGPU-Sim PTX:    immediate post dominator      @  PC=0x938 (_1.ptx:551) mov.f32 %f26, %f78;
GPGPU-Sim PTX:  4 (potential) branch divergence @  PC=0x8d8 (_1.ptx:529) @%p6 bra BB9_7;
GPGPU-Sim PTX:    immediate post dominator      @  PC=0x938 (_1.ptx:551) mov.f32 %f26, %f78;
GPGPU-Sim PTX:  5 (potential) branch divergence @  PC=0x8f8 (_1.ptx:536) @%p7 bra BB9_7;
GPGPU-Sim PTX:    immediate post dominator      @  PC=0x938 (_1.ptx:551) mov.f32 %f26, %f78;
GPGPU-Sim PTX:  6 (potential) branch divergence @  PC=0x928 (_1.ptx:545) bra.uni BB9_8;
GPGPU-Sim PTX:    immediate post dominator      @  PC=0x938 (_1.ptx:551) mov.f32 %f26, %f78;
GPGPU-Sim PTX:  7 (potential) branch divergence @  PC=0x948 (_1.ptx:554) @%p8 bra BB9_10;
GPGPU-Sim PTX:    immediate post dominator      @  PC=0x9a8 (_1.ptx:573) mov.f32 %f27, %f77;
GPGPU-Sim PTX:  8 (potential) branch divergence @  PC=0x988 (_1.ptx:563) @%p9 bra BB9_11;
GPGPU-Sim PTX:    immediate post dominator      @  PC=0x9a8 (_1.ptx:573) mov.f32 %f27, %f77;
GPGPU-Sim PTX:  9 (potential) branch divergence @  PC=0x998 (_1.ptx:567) bra.uni BB9_12;
GPGPU-Sim PTX:    immediate post dominator      @  PC=0x9a8 (_1.ptx:573) mov.f32 %f27, %f77;
GPGPU-Sim PTX: 10 (potential) branch divergence @  PC=0x9d0 (_1.ptx:581) @%p12 bra BB9_1;
GPGPU-Sim PTX:    immediate post dominator      @  PC=0x9d8 (_1.ptx:584) selp.u32 %r14, 1, 0, %p11;
GPGPU-Sim PTX: ... end of reconvergence points for _Z12notShadowRayP4Node6float3S1_f
GPGPU-Sim PTX: ... done pre-decoding instructions for '_Z12notShadowRayP4Node6float3S1_f'.
GPGPU-Sim PTX: allocating stack frame region for .param "func_retval0" from 0x0 to 0x4
GPGPU-Sim PTX: allocating stack frame region for .param "_Z15float2int_pow20f_param_0" from 0x4 to 0x8
GPGPU-Sim PTX: instruction assembly for function '_Z15float2int_pow20f'...   done.
GPGPU-Sim PTX: finding reconvergence points for '_Z15float2int_pow20f'...
GPGPU-Sim PTX: Finding dominators for '_Z15float2int_pow20f'...
GPGPU-Sim PTX: Finding immediate dominators for '_Z15float2int_pow20f'...
GPGPU-Sim PTX: Finding postdominators for '_Z15float2int_pow20f'...
GPGPU-Sim PTX: Finding immediate postdominators for '_Z15float2int_pow20f'...
GPGPU-Sim PTX: pre-decoding instructions for '_Z15float2int_pow20f'...
GPGPU-Sim PTX: reconvergence points for _Z15float2int_pow20f...
GPGPU-Sim PTX: ... end of reconvergence points for _Z15float2int_pow20f
GPGPU-Sim PTX: ... done pre-decoding instructions for '_Z15float2int_pow20f'.
GPGPU-Sim PTX: allocating stack frame region for .param "func_retval0" from 0x0 to 0x4
GPGPU-Sim PTX: allocating stack frame region for .param "_Z15float2int_pow50f_param_0" from 0x4 to 0x8
GPGPU-Sim PTX: instruction assembly for function '_Z15float2int_pow50f'...   done.
GPGPU-Sim PTX: finding reconvergence points for '_Z15float2int_pow50f'...
GPGPU-Sim PTX: Finding dominators for '_Z15float2int_pow50f'...
GPGPU-Sim PTX: Finding immediate dominators for '_Z15float2int_pow50f'...
GPGPU-Sim PTX: Finding postdominators for '_Z15float2int_pow50f'...
GPGPU-Sim PTX: Finding immediate postdominators for '_Z15float2int_pow50f'...
GPGPU-Sim PTX: pre-decoding instructions for '_Z15float2int_pow50f'...
GPGPU-Sim PTX: reconvergence points for _Z15float2int_pow50f...
GPGPU-Sim PTX: ... end of reconvergence points for _Z15float2int_pow50f
GPGPU-Sim PTX: ... done pre-decoding instructions for '_Z15float2int_pow50f'.
GPGPU-Sim PTX: allocating stack frame region for .local "__local_depot12" from 0x0 to 0x50
GPGPU-Sim PTX: instruction assembly for function '_Z6renderPjP4Nodejjff'...   done.
GPGPU-Sim PTX: finding reconvergence points for '_Z6renderPjP4Nodejjff'...
GPGPU-Sim PTX: Finding dominators for '_Z6renderPjP4Nodejjff'...
GPGPU-Sim PTX: Finding immediate dominators for '_Z6renderPjP4Nodejjff'...
GPGPU-Sim PTX: Finding postdominators for '_Z6renderPjP4Nodejjff'...
GPGPU-Sim PTX: Finding immediate postdominators for '_Z6renderPjP4Nodejjff'...
GPGPU-Sim PTX: pre-decoding instructions for '_Z6renderPjP4Nodejjff'...
GPGPU-Sim PTX: reconvergence points for _Z6renderPjP4Nodejjff...
GPGPU-Sim PTX:  1 (potential) branch divergence @  PC=0xd18 (_1.ptx:737) @%p10 bra BB12_2;
GPGPU-Sim PTX:    immediate post dominator      @ 
GPGPU-Sim PTX:  2 (potential) branch divergence @  PC=0xfb0 (_1.ptx:851) @%p12 bra BB12_6;
GPGPU-Sim PTX:    immediate post dominator      @  PC=0x1120 (_1.ptx:932) setp.lt.f32 %p18, %f694, 0f461C4000;
GPGPU-Sim PTX:  3 (potential) branch divergence @  PC=0xff8 (_1.ptx:866) @%p13 bra BB12_9;
GPGPU-Sim PTX:    immediate post dominator      @  PC=0x1120 (_1.ptx:932) setp.lt.f32 %p18, %f694, 0f461C4000;
GPGPU-Sim PTX:  4 (potential) branch divergence @  PC=0x1050 (_1.ptx:885) bra.uni BB12_10;
GPGPU-Sim PTX:    immediate post dominator      @  PC=0x1120 (_1.ptx:932) setp.lt.f32 %p18, %f694, 0f461C4000;
GPGPU-Sim PTX:  5 (potential) branch divergence @  PC=0x10c0 (_1.ptx:909) @%p16 bra BB12_9;
GPGPU-Sim PTX:    immediate post dominator      @  PC=0x1120 (_1.ptx:932) setp.lt.f32 %p18, %f694, 0f461C4000;
GPGPU-Sim PTX:  6 (potential) branch divergence @  PC=0x10e0 (_1.ptx:916) @%p17 bra BB12_9;
GPGPU-Sim PTX:    immediate post dominator      @  PC=0x1120 (_1.ptx:932) setp.lt.f32 %p18, %f694, 0f461C4000;
GPGPU-Sim PTX:  7 (potential) branch divergence @  PC=0x1110 (_1.ptx:925) bra.uni BB12_10;
GPGPU-Sim PTX:    immediate post dominator      @  PC=0x1120 (_1.ptx:932) setp.lt.f32 %p18, %f694, 0f461C4000;
GPGPU-Sim PTX:  8 (potential) branch divergence @  PC=0x1160 (_1.ptx:942) @%p21 bra BB12_13;
GPGPU-Sim PTX:    immediate post dominator      @  PC=0x12d0 (_1.ptx:1023) setp.lt.f32 %p27, %f695, %f68;
GPGPU-Sim PTX:  9 (potential) branch divergence @  PC=0x11a8 (_1.ptx:957) @%p22 bra BB12_16;
GPGPU-Sim PTX:    immediate post dominator      @  PC=0x12d0 (_1.ptx:1023) setp.lt.f32 %p27, %f695, %f68;
GPGPU-Sim PTX: 10 (potential) branch divergence @  PC=0x1200 (_1.ptx:976) bra.uni BB12_17;
GPGPU-Sim PTX:    immediate post dominator      @  PC=0x12d0 (_1.ptx:1023) setp.lt.f32 %p27, %f695, %f68;
GPGPU-Sim PTX: 11 (potential) branch divergence @  PC=0x1270 (_1.ptx:1000) @%p25 bra BB12_16;
GPGPU-Sim PTX:    immediate post dominator      @  PC=0x12d0 (_1.ptx:1023) setp.lt.f32 %p27, %f695, %f68;
GPGPU-Sim PTX: 12 (potential) branch divergence @  PC=0x1290 (_1.ptx:1007) @%p26 bra BB12_16;
GPGPU-Sim PTX:    immediate post dominator      @  PC=0x12d0 (_1.ptx:1023) setp.lt.f32 %p27, %f695, %f68;
GPGPU-Sim PTX: 13 (potential) branch divergence @  PC=0x12c0 (_1.ptx:1016) bra.uni BB12_17;
GPGPU-Sim PTX:    immediate post dominator      @  PC=0x12d0 (_1.ptx:1023) setp.lt.f32 %p27, %f695, %f68;
GPGPU-Sim PTX: 14 (potential) branch divergence @  PC=0x1310 (_1.ptx:1033) @%p30 bra BB12_20;
GPGPU-Sim PTX:    immediate post dominator      @  PC=0x1480 (_1.ptx:1114) setp.lt.f32 %p36, %f696, %f83;
GPGPU-Sim PTX: 15 (potential) branch divergence @  PC=0x1358 (_1.ptx:1048) @%p31 bra BB12_23;
GPGPU-Sim PTX:    immediate post dominator      @  PC=0x1480 (_1.ptx:1114) setp.lt.f32 %p36, %f696, %f83;
GPGPU-Sim PTX: 16 (potential) branch divergence @  PC=0x13b0 (_1.ptx:1067) bra.uni BB12_24;
GPGPU-Sim PTX:    immediate post dominator      @  PC=0x1480 (_1.ptx:1114) setp.lt.f32 %p36, %f696, %f83;
GPGPU-Sim PTX: 17 (potential) branch divergence @  PC=0x1420 (_1.ptx:1091) @%p34 bra BB12_23;
GPGPU-Sim PTX:    immediate post dominator      @  PC=0x1480 (_1.ptx:1114) setp.lt.f32 %p36, %f696, %f83;
GPGPU-Sim PTX: 18 (potential) branch divergence @  PC=0x1440 (_1.ptx:1098) @%p35 bra BB12_23;
GPGPU-Sim PTX:    immediate post dominator      @  PC=0x1480 (_1.ptx:1114) setp.lt.f32 %p36, %f696, %f83;
GPGPU-Sim PTX: 19 (potential) branch divergence @  PC=0x1470 (_1.ptx:1107) bra.uni BB12_24;
GPGPU-Sim PTX:    immediate post dominator      @  PC=0x1480 (_1.ptx:1114) setp.lt.f32 %p36, %f696, %f83;
GPGPU-Sim PTX: 20 (potential) branch divergence @  PC=0x14c0 (_1.ptx:1124) @%p39 bra BB12_27;
GPGPU-Sim PTX:    immediate post dominator      @  PC=0x1630 (_1.ptx:1205) setp.lt.f32 %p45, %f697, %f98;
GPGPU-Sim PTX: 21 (potential) branch divergence @  PC=0x1508 (_1.ptx:1139) @%p40 bra BB12_30;
GPGPU-Sim PTX:    immediate post dominator      @  PC=0x1630 (_1.ptx:1205) setp.lt.f32 %p45, %f697, %f98;
GPGPU-Sim PTX: 22 (potential) branch divergence @  PC=0x1560 (_1.ptx:1158) bra.uni BB12_31;
GPGPU-Sim PTX:    immediate post dominator      @  PC=0x1630 (_1.ptx:1205) setp.lt.f32 %p45, %f697, %f98;
GPGPU-Sim PTX: 23 (potential) branch divergence @  PC=0x15d0 (_1.ptx:1182) @%p43 bra BB12_30;
GPGPU-Sim PTX:    immediate post dominator      @  PC=0x1630 (_1.ptx:1205) setp.lt.f32 %p45, %f697, %f98;
GPGPU-Sim PTX: 24 (potential) branch divergence @  PC=0x15f0 (_1.ptx:1189) @%p44 bra BB12_30;
GPGPU-Sim PTX:    immediate post dominator      @  PC=0x1630 (_1.ptx:1205) setp.lt.f32 %p45, %f697, %f98;
GPGPU-Sim PTX: 25 (potential) branch divergence @  PC=0x1620 (_1.ptx:1198) bra.uni BB12_31;
GPGPU-Sim PTX:    immediate post dominator      @  PC=0x1630 (_1.ptx:1205) setp.lt.f32 %p45, %f697, %f98;
GPGPU-Sim PTX: 26 (potential) branch divergence @  PC=0x1670 (_1.ptx:1214) @%p50 bra BB12_32;
GPGPU-Sim PTX:    immediate post dominator      @  PC=0x22f8 (_1.ptx:1857) add.s32 %r130, %r130, 1;
GPGPU-Sim PTX: 27 (potential) branch divergence @  PC=0x1678 (_1.ptx:1215) bra.uni BB12_75;
GPGPU-Sim PTX:    immediate post dominator      @  PC=0x22f8 (_1.ptx:1857) add.s32 %r130, %r130, 1;
GPGPU-Sim PTX: 28 (potential) branch divergence @  PC=0x17b0 (_1.ptx:1267) @%p51 bra BB12_34;
GPGPU-Sim PTX:    immediate post dominator      @  PC=0x1830 (_1.ptx:1293) mov.f32 %f139, %f706;
GPGPU-Sim PTX: 29 (potential) branch divergence @  PC=0x17d8 (_1.ptx:1275) bra.uni BB12_35;
GPGPU-Sim PTX:    immediate post dominator      @  PC=0x1830 (_1.ptx:1293) mov.f32 %f139, %f706;
GPGPU-Sim PTX: 30 (potential) branch divergence @  PC=0x1868 (_1.ptx:1301) @%p52 bra BB12_37;
GPGPU-Sim PTX:    immediate post dominator      @  PC=0x18c0 (_1.ptx:1318) mov.f32 %f148, %f705;
GPGPU-Sim PTX: 31 (potential) branch divergence @  PC=0x1888 (_1.ptx:1306) bra.uni BB12_38;
GPGPU-Sim PTX:    immediate post dominator      @  PC=0x18c0 (_1.ptx:1318) mov.f32 %f148, %f705;
GPGPU-Sim PTX: 32 (potential) branch divergence @  PC=0x1930 (_1.ptx:1334) @%p53 bra BB12_74;
GPGPU-Sim PTX:    immediate post dominator      @  PC=0x2248 (_1.ptx:1828) add.f32 %f531, %f137, %f137;
GPGPU-Sim PTX: 33 (potential) branch divergence @  PC=0x1998 (_1.ptx:1355) @%p54 bra BB12_43;
GPGPU-Sim PTX:    immediate post dominator      @  PC=0x1b08 (_1.ptx:1435) mov.f32 %f169, %f709;
GPGPU-Sim PTX: 34 (potential) branch divergence @  PC=0x19e0 (_1.ptx:1370) @%p55 bra BB12_46;
GPGPU-Sim PTX:    immediate post dominator      @  PC=0x1b08 (_1.ptx:1435) mov.f32 %f169, %f709;
GPGPU-Sim PTX: 35 (potential) branch divergence @  PC=0x1a38 (_1.ptx:1389) bra.uni BB12_47;
GPGPU-Sim PTX:    immediate post dominator      @  PC=0x1b08 (_1.ptx:1435) mov.f32 %f169, %f709;
GPGPU-Sim PTX: 36 (potential) branch divergence @  PC=0x1aa8 (_1.ptx:1413) @%p58 bra BB12_46;
GPGPU-Sim PTX:    immediate post dominator      @  PC=0x1b08 (_1.ptx:1435) mov.f32 %f169, %f709;
GPGPU-Sim PTX: 37 (potential) branch divergence @  PC=0x1ac8 (_1.ptx:1420) @%p59 bra BB12_46;
GPGPU-Sim PTX:    immediate post dominator      @  PC=0x1b08 (_1.ptx:1435) mov.f32 %f169, %f709;
GPGPU-Sim PTX: 38 (potential) branch divergence @  PC=0x1af8 (_1.ptx:1429) bra.uni BB12_47;
GPGPU-Sim PTX:    immediate post dominator      @  PC=0x1b08 (_1.ptx:1435) mov.f32 %f169, %f709;
GPGPU-Sim PTX: 39 (potential) branch divergence @  PC=0x1b18 (_1.ptx:1438) @%p60 bra BB12_49;
GPGPU-Sim PTX:    immediate post dominator      @  PC=0x1b78 (_1.ptx:1457) mov.f32 %f170, %f708;
GPGPU-Sim PTX: 40 (potential) branch divergence @  PC=0x1b58 (_1.ptx:1447) @%p61 bra BB12_50;
GPGPU-Sim PTX:    immediate post dominator      @  PC=0x1b78 (_1.ptx:1457) mov.f32 %f170, %f708;
GPGPU-Sim PTX: 41 (potential) branch divergence @  PC=0x1b68 (_1.ptx:1451) bra.uni BB12_51;
GPGPU-Sim PTX:    immediate post dominator      @  PC=0x1b78 (_1.ptx:1457) mov.f32 %f170, %f708;
GPGPU-Sim PTX: 42 (potential) branch divergence @  PC=0x1ba0 (_1.ptx:1465) @%p64 bra BB12_40;
GPGPU-Sim PTX:    immediate post dominator      @  PC=0x1ba8 (_1.ptx:1468) setp.neu.f32 %p65, %f170, 0f00000000;
GPGPU-Sim PTX: 43 (potential) branch divergence @  PC=0x1bb0 (_1.ptx:1469) @%p65 bra BB12_74;
GPGPU-Sim PTX:    immediate post dominator      @  PC=0x2248 (_1.ptx:1828) add.f32 %f531, %f137, %f137;
GPGPU-Sim PTX: 44 (potential) branch divergence @  PC=0x1cd0 (_1.ptx:1516) @%p66 bra BB12_72;
GPGPU-Sim PTX:    immediate post dominator      @  PC=0x2200 (_1.ptx:1812) mov.f32 %f187, %f711;
GPGPU-Sim PTX: 45 (potential) branch divergence @  PC=0x1ce8 (_1.ptx:1522) @%p67 bra BB12_71;
GPGPU-Sim PTX:    immediate post dominator      @  PC=0x2200 (_1.ptx:1812) mov.f32 %f187, %f711;
GPGPU-Sim PTX: 46 (potential) branch divergence @  PC=0x1d00 (_1.ptx:1528) @%p68 bra BB12_71;
GPGPU-Sim PTX:    immediate post dominator      @  PC=0x2200 (_1.ptx:1812) mov.f32 %f187, %f711;
GPGPU-Sim PTX: 47 (potential) branch divergence @  PC=0x1d10 (_1.ptx:1532) @%p69 bra BB12_70;
GPGPU-Sim PTX:    immediate post dominator      @  PC=0x2200 (_1.ptx:1812) mov.f32 %f187, %f711;
GPGPU-Sim PTX: 48 (potential) branch divergence @  PC=0x1d20 (_1.ptx:1537) @%p70 bra BB12_68;
GPGPU-Sim PTX:    immediate post dominator      @  PC=0x2200 (_1.ptx:1812) mov.f32 %f187, %f711;
GPGPU-Sim PTX: 49 (potential) branch divergence @  PC=0x1d50 (_1.ptx:1549) @%p71 bra BB12_67;
GPGPU-Sim PTX:    immediate post dominator      @  PC=0x2200 (_1.ptx:1812) mov.f32 %f187, %f711;
GPGPU-Sim PTX: 50 (potential) branch divergence @  PC=0x1d68 (_1.ptx:1554) @%p72 bra BB12_66;
GPGPU-Sim PTX:    immediate post dominator      @  PC=0x2200 (_1.ptx:1812) mov.f32 %f187, %f711;
GPGPU-Sim PTX: 51 (potential) branch divergence @  PC=0x1d80 (_1.ptx:1559) @%p73 bra BB12_62;
GPGPU-Sim PTX:    immediate post dominator      @  PC=0x2200 (_1.ptx:1812) mov.f32 %f187, %f711;
GPGPU-Sim PTX: 52 (potential) branch divergence @  PC=0x1d98 (_1.ptx:1565) @%p74 bra BB12_65;
GPGPU-Sim PTX:    immediate post dominator      @  PC=0x2200 (_1.ptx:1812) mov.f32 %f187, %f711;
GPGPU-Sim PTX: 53 (potential) branch divergence @  PC=0x20d8 (_1.ptx:1740) @%p81 bra BB12_63;
GPGPU-Sim PTX:    immediate post dominator      @  PC=0x20f0 (_1.ptx:1749) mov.b32 %r87, %f710;
GPGPU-Sim PTX: 54 (potential) branch divergence @  PC=0x20e0 (_1.ptx:1741) bra.uni BB12_64;
GPGPU-Sim PTX:    immediate post dominator      @  PC=0x20f0 (_1.ptx:1749) mov.b32 %r87, %f710;
GPGPU-Sim PTX: 55 (potential) branch divergence @  PC=0x2120 (_1.ptx:1757) bra.uni BB12_73;
GPGPU-Sim PTX:    immediate post dominator      @  PC=0x2200 (_1.ptx:1812) mov.f32 %f187, %f711;
GPGPU-Sim PTX: 56 (potential) branch divergence @  PC=0x2138 (_1.ptx:1763) bra.uni BB12_73;
GPGPU-Sim PTX:    immediate post dominator      @  PC=0x2200 (_1.ptx:1812) mov.f32 %f187, %f711;
GPGPU-Sim PTX: 57 (potential) branch divergence @  PC=0x2170 (_1.ptx:1776) bra.uni BB12_73;
GPGPU-Sim PTX:    immediate post dominator      @  PC=0x2200 (_1.ptx:1812) mov.f32 %f187, %f711;
GPGPU-Sim PTX: 58 (potential) branch divergence @  PC=0x2190 (_1.ptx:1783) bra.uni BB12_73;
GPGPU-Sim PTX:    immediate post dominator      @  PC=0x2200 (_1.ptx:1812) mov.f32 %f187, %f711;
GPGPU-Sim PTX: 59 (potential) branch divergence @  PC=0x21a0 (_1.ptx:1788) @%p83 bra BB12_72;
GPGPU-Sim PTX:    immediate post dominator      @  PC=0x2200 (_1.ptx:1812) mov.f32 %f187, %f711;
GPGPU-Sim PTX: 60 (potential) branch divergence @  PC=0x21c8 (_1.ptx:1796) bra.uni BB12_73;
GPGPU-Sim PTX:    immediate post dominator      @  PC=0x2200 (_1.ptx:1812) mov.f32 %f187, %f711;
GPGPU-Sim PTX: 61 (potential) branch divergence @  PC=0x21d8 (_1.ptx:1800) bra.uni BB12_73;
GPGPU-Sim PTX:    immediate post dominator      @  PC=0x2200 (_1.ptx:1812) mov.f32 %f187, %f711;
GPGPU-Sim PTX: 62 (potential) branch divergence @  PC=0x21f0 (_1.ptx:1806) bra.uni BB12_73;
GPGPU-Sim PTX:    immediate post dominator      @  PC=0x2200 (_1.ptx:1812) mov.f32 %f187, %f711;
GPGPU-Sim PTX: 63 (potential) branch divergence @  PC=0x2318 (_1.ptx:1863) @%p87 bra BB12_3;
GPGPU-Sim PTX:    immediate post dominator      @  PC=0x2320 (_1.ptx:1865) add.s32 %r94, %r132, -1;
GPGPU-Sim PTX: 64 (potential) branch divergence @  PC=0x2330 (_1.ptx:1868) @%p88 bra BB12_79;
GPGPU-Sim PTX:    immediate post dominator      @  PC=0x23b8 (_1.ptx:1893) ld.local.v4.f32 {%f571, %f572, %f573, %f574}, [%rl3];
GPGPU-Sim PTX: 65 (potential) branch divergence @  PC=0x23b0 (_1.ptx:1889) @%p89 bra BB12_78;
GPGPU-Sim PTX:    immediate post dominator      @  PC=0x23b8 (_1.ptx:1893) ld.local.v4.f32 {%f571, %f572, %f573, %f574}, [%rl3];
GPGPU-Sim PTX: ... end of reconvergence points for _Z6renderPjP4Nodejjff
GPGPU-Sim PTX: ... done pre-decoding instructions for '_Z6renderPjP4Nodejjff'.
GPGPU-Sim PTX: allocating stack frame region for .param "_ZN4dim3C1Ejjj_param_0" from 0x0 to 0x8
GPGPU-Sim PTX: allocating stack frame region for .param "_ZN4dim3C1Ejjj_param_1" from 0x8 to 0xc
GPGPU-Sim PTX: allocating stack frame region for .param "_ZN4dim3C1Ejjj_param_2" from 0xc to 0x10
GPGPU-Sim PTX: allocating stack frame region for .param "_ZN4dim3C1Ejjj_param_3" from 0x10 to 0x14
GPGPU-Sim PTX: instruction assembly for function '_ZN4dim3C1Ejjj'...   done.
GPGPU-Sim PTX: finding reconvergence points for '_ZN4dim3C1Ejjj'...
GPGPU-Sim PTX: Finding dominators for '_ZN4dim3C1Ejjj'...
GPGPU-Sim PTX: Finding immediate dominators for '_ZN4dim3C1Ejjj'...
GPGPU-Sim PTX: Finding postdominators for '_ZN4dim3C1Ejjj'...
GPGPU-Sim PTX: Finding immediate postdominators for '_ZN4dim3C1Ejjj'...
GPGPU-Sim PTX: pre-decoding instructions for '_ZN4dim3C1Ejjj'...
GPGPU-Sim PTX: reconvergence points for _ZN4dim3C1Ejjj...
GPGPU-Sim PTX: ... end of reconvergence points for _ZN4dim3C1Ejjj
GPGPU-Sim PTX: ... done pre-decoding instructions for '_ZN4dim3C1Ejjj'.
GPGPU-Sim PTX: finished parsing EMBEDDED .ptx file _1.ptx
Adding _cuobjdump_2.ptx with cubin handle 1
GPGPU-Sim PTX: extracting embedded .ptx to temporary file "_ptx_eWwKQl"
Running: cat _ptx_eWwKQl | sed 's/.version 1.5/.version 1.4/' | sed 's/, texmode_independent//' | sed 's/\(\.extern \.const\[1\] .b8 \w\+\)\[\]/\1\[1\]/' | sed 's/const\[.\]/const\[0\]/g' > _ptx2_J1vKmT
GPGPU-Sim PTX: generating ptxinfo using "$CUDA_INSTALL_PATH/bin/ptxas --gpu-name=sm_20 -v _ptx2_J1vKmT --output-file  /dev/null 2> _ptx_eWwKQlinfo"
GPGPU-Sim PTX: Kernel '_Z6renderPjP4Nodejjff' : regs=43, lmem=0, smem=0, cmem=324
GPGPU-Sim PTX: removing ptxinfo using "rm -f _ptx_eWwKQl _ptx2_J1vKmT _ptx_eWwKQlinfo"
GPGPU-Sim PTX: loading globals with explicit initializers... 
GPGPU-Sim PTX: finished loading globals (0 bytes total).
GPGPU-Sim PTX: loading constants with explicit initializers...  done.
GPGPU-Sim PTX: __cudaRegisterVar: hostVar = 0x647740; deviceAddress = MView; deviceName = MView
GPGPU-Sim PTX: __cudaRegisterVar: Registering const memory space of 48 bytes
GPGPU-Sim PTX registering constant MView (48 bytes) to name mapping
GPGPU-Sim PTX: __cudaRegisterVar: hostVar = 0x647780; deviceAddress = cnode; deviceName = cnode
GPGPU-Sim PTX: __cudaRegisterVar: Registering const memory space of 160 bytes
GPGPU-Sim PTX registering constant cnode (160 bytes) to name mapping
GPGPU-Sim PTX: cudaMemcpyToSymbol: symbol = 0x647780
GPGPU-Sim PTX: starting gpgpu_ptx_sim_memcpy_symbol with hostVar 0x0x647780
GPGPU-Sim PTX: gpgpu_ptx_sim_memcpy_symbol: Found PTX symbol w/ hostVar=0x647780
GPGPU-Sim PTX: gpgpu_ptx_sim_memcpy_symbol: copying const memory 160 bytes  to  symbol cnode+0 @0x180 ...
GPGPU-Sim PTX: cudaMemcpyToSymbol: symbol = 0x647740
GPGPU-Sim PTX: starting gpgpu_ptx_sim_memcpy_symbol with hostVar 0x0x647740
GPGPU-Sim PTX: gpgpu_ptx_sim_memcpy_symbol: Found PTX symbol w/ hostVar=0x647740
GPGPU-Sim PTX: gpgpu_ptx_sim_memcpy_symbol: copying const memory 48 bytes  to  symbol MView+0 @0x100 ...

GPGPU-Sim PTX: cudaLaunch for 0x0x40ad70 (mode=performance simulation) on stream 0
GPGPU-Sim PTX: pushing kernel '_Z6renderPjP4Nodejjff' to stream 0, gridDim= (16,32,1) blockDim = (16,8,1) 
kernel '_Z6renderPjP4Nodejjff' transfer to GPU hardware scheduler
GPGPU-Sim uArch: Shader 1 bind to kernel 1 '_Z6renderPjP4Nodejjff'
GPGPU-Sim uArch: CTA/core = 5, limited by: regs
GPGPU-Sim uArch: core:  1, cta: 0 initialized @(1,0)
GPGPU-Sim uArch: Shader 2 bind to kernel 1 '_Z6renderPjP4Nodejjff'
GPGPU-Sim uArch: core:  2, cta: 0 initialized @(1,0)
GPGPU-Sim uArch: Shader 3 bind to kernel 1 '_Z6renderPjP4Nodejjff'
GPGPU-Sim uArch: core:  3, cta: 0 initialized @(1,0)
GPGPU-Sim uArch: Shader 4 bind to kernel 1 '_Z6renderPjP4Nodejjff'
GPGPU-Sim uArch: core:  4, cta: 0 initialized @(1,0)
GPGPU-Sim uArch: Shader 5 bind to kernel 1 '_Z6renderPjP4Nodejjff'
GPGPU-Sim uArch: core:  5, cta: 0 initialized @(1,0)
GPGPU-Sim uArch: Shader 6 bind to kernel 1 '_Z6renderPjP4Nodejjff'
GPGPU-Sim uArch: core:  6, cta: 0 initialized @(1,0)
GPGPU-Sim uArch: Shader 7 bind to kernel 1 '_Z6renderPjP4Nodejjff'
GPGPU-Sim uArch: core:  7, cta: 0 initialized @(1,0)
GPGPU-Sim uArch: Shader 8 bind to kernel 1 '_Z6renderPjP4Nodejjff'
GPGPU-Sim uArch: core:  8, cta: 0 initialized @(1,0)
GPGPU-Sim uArch: Shader 9 bind to kernel 1 '_Z6renderPjP4Nodejjff'
GPGPU-Sim uArch: core:  9, cta: 0 initialized @(1,0)
GPGPU-Sim uArch: Shader 10 bind to kernel 1 '_Z6renderPjP4Nodejjff'
GPGPU-Sim uArch: core: 10, cta: 0 initialized @(1,0)
GPGPU-Sim uArch: Shader 11 bind to kernel 1 '_Z6renderPjP4Nodejjff'
GPGPU-Sim uArch: core: 11, cta: 0 initialized @(1,0)
GPGPU-Sim uArch: Shader 12 bind to kernel 1 '_Z6renderPjP4Nodejjff'
GPGPU-Sim uArch: core: 12, cta: 0 initialized @(1,0)
GPGPU-Sim uArch: Shader 13 bind to kernel 1 '_Z6renderPjP4Nodejjff'
GPGPU-Sim uArch: core: 13, cta: 0 initialized @(1,0)
GPGPU-Sim uArch: Shader 14 bind to kernel 1 '_Z6renderPjP4Nodejjff'
GPGPU-Sim uArch: core: 14, cta: 0 initialized @(1,0)
GPGPU-Sim uArch: Shader 15 bind to kernel 1 '_Z6renderPjP4Nodejjff'
GPGPU-Sim uArch: core: 15, cta: 0 initialized @(1,0)
GPGPU-Sim uArch: Shader 16 bind to kernel 1 '_Z6renderPjP4Nodejjff'
GPGPU-Sim uArch: core: 16, cta: 0 initialized @(1,0)
GPGPU-Sim uArch: Shader 17 bind to kernel 1 '_Z6renderPjP4Nodejjff'
GPGPU-Sim uArch: core: 17, cta: 0 initialized @(1,0)
GPGPU-Sim uArch: Shader 18 bind to kernel 1 '_Z6renderPjP4Nodejjff'
GPGPU-Sim uArch: core: 18, cta: 0 initialized @(1,0)
GPGPU-Sim uArch: Shader 19 bind to kernel 1 '_Z6renderPjP4Nodejjff'
GPGPU-Sim uArch: core: 19, cta: 0 initialized @(1,0)
GPGPU-Sim uArch: Shader 20 bind to kernel 1 '_Z6renderPjP4Nodejjff'
GPGPU-Sim uArch: core: 20, cta: 0 initialized @(1,0)
GPGPU-Sim uArch: Shader 21 bind to kernel 1 '_Z6renderPjP4Nodejjff'
GPGPU-Sim uArch: core: 21, cta: 0 initialized @(1,0)
GPGPU-Sim uArch: Shader 22 bind to kernel 1 '_Z6renderPjP4Nodejjff'
GPGPU-Sim uArch: core: 22, cta: 0 initialized @(1,0)
GPGPU-Sim uArch: Shader 23 bind to kernel 1 '_Z6renderPjP4Nodejjff'
GPGPU-Sim uArch: core: 23, cta: 0 initialized @(1,0)
GPGPU-Sim uArch: Shader 0 bind to kernel 1 '_Z6renderPjP4Nodejjff'
GPGPU-Sim uArch: core:  0, cta: 0 initialized @(1,0)
GPGPU-Sim uArch: core:  1, cta: 1 initialized @(2,0)
GPGPU-Sim uArch: core:  2, cta: 1 initialized @(2,0)
GPGPU-Sim uArch: core:  3, cta: 1 initialized @(2,0)
GPGPU-Sim uArch: core:  4, cta: 1 initialized @(2,0)
GPGPU-Sim uArch: core:  5, cta: 1 initialized @(2,0)
GPGPU-Sim uArch: core:  6, cta: 1 initialized @(2,0)
GPGPU-Sim uArch: core:  7, cta: 1 initialized @(2,0)
GPGPU-Sim uArch: core:  8, cta: 1 initialized @(2,0)
GPGPU-Sim uArch: core:  9, cta: 1 initialized @(2,0)
GPGPU-Sim uArch: core: 10, cta: 1 initialized @(2,0)
GPGPU-Sim uArch: core: 11, cta: 1 initialized @(2,0)
GPGPU-Sim uArch: core: 12, cta: 1 initialized @(2,0)
GPGPU-Sim uArch: core: 13, cta: 1 initialized @(2,0)
GPGPU-Sim uArch: core: 14, cta: 1 initialized @(2,0)
GPGPU-Sim uArch: core: 15, cta: 1 initialized @(2,0)
GPGPU-Sim uArch: core: 16, cta: 1 initialized @(2,0)
GPGPU-Sim uArch: core: 17, cta: 1 initialized @(2,0)
GPGPU-Sim uArch: core: 18, cta: 1 initialized @(2,0)
GPGPU-Sim uArch: core: 19, cta: 1 initialized @(2,0)
GPGPU-Sim uArch: core: 20, cta: 1 initialized @(2,0)
GPGPU-Sim uArch: core: 21, cta: 1 initialized @(2,0)
GPGPU-Sim uArch: core: 22, cta: 1 initialized @(2,0)
GPGPU-Sim uArch: core: 23, cta: 1 initialized @(2,0)
GPGPU-Sim uArch: core:  0, cta: 1 initialized @(2,0)
GPGPU-Sim uArch: core:  1, cta: 2 initialized @(3,0)
GPGPU-Sim uArch: core:  2, cta: 2 initialized @(3,0)
GPGPU-Sim uArch: core:  3, cta: 2 initialized @(3,0)
GPGPU-Sim uArch: core:  4, cta: 2 initialized @(3,0)
GPGPU-Sim uArch: core:  5, cta: 2 initialized @(3,0)
GPGPU-Sim uArch: core:  6, cta: 2 initialized @(3,0)
GPGPU-Sim uArch: core:  7, cta: 2 initialized @(3,0)
GPGPU-Sim uArch: core:  8, cta: 2 initialized @(3,0)
GPGPU-Sim uArch: core:  9, cta: 2 initialized @(3,0)
GPGPU-Sim uArch: core: 10, cta: 2 initialized @(3,0)
GPGPU-Sim uArch: core: 11, cta: 2 initialized @(3,0)
GPGPU-Sim uArch: core: 12, cta: 2 initialized @(3,0)
GPGPU-Sim uArch: core: 13, cta: 2 initialized @(3,0)
GPGPU-Sim uArch: core: 14, cta: 2 initialized @(3,0)
GPGPU-Sim uArch: core: 15, cta: 2 initialized @(3,0)
GPGPU-Sim uArch: core: 16, cta: 2 initialized @(3,0)
GPGPU-Sim uArch: core: 17, cta: 2 initialized @(3,0)
GPGPU-Sim uArch: core: 18, cta: 2 initialized @(3,0)
GPGPU-Sim uArch: core: 19, cta: 2 initialized @(3,0)
GPGPU-Sim uArch: core: 20, cta: 2 initialized @(3,0)
GPGPU-Sim uArch: core: 21, cta: 2 initialized @(3,0)
GPGPU-Sim uArch: core: 22, cta: 2 initialized @(3,0)
GPGPU-Sim uArch: core: 23, cta: 2 initialized @(3,0)
GPGPU-Sim uArch: core:  0, cta: 2 initialized @(3,0)
GPGPU-Sim uArch: core:  1, cta: 3 initialized @(4,0)
GPGPU-Sim uArch: core:  2, cta: 3 initialized @(4,0)
GPGPU-Sim uArch: core:  3, cta: 3 initialized @(4,0)
GPGPU-Sim uArch: core:  4, cta: 3 initialized @(4,0)
GPGPU-Sim uArch: core:  5, cta: 3 initialized @(4,0)
GPGPU-Sim uArch: core:  6, cta: 3 initialized @(4,0)
GPGPU-Sim uArch: core:  7, cta: 3 initialized @(4,0)
GPGPU-Sim uArch: core:  8, cta: 3 initialized @(4,0)
GPGPU-Sim uArch: core:  9, cta: 3 initialized @(4,0)
GPGPU-Sim uArch: core: 10, cta: 3 initialized @(4,0)
GPGPU-Sim uArch: core: 11, cta: 3 initialized @(4,0)
GPGPU-Sim uArch: core: 12, cta: 3 initialized @(4,0)
GPGPU-Sim uArch: core: 13, cta: 3 initialized @(4,0)
GPGPU-Sim uArch: core: 14, cta: 3 initialized @(4,0)
GPGPU-Sim uArch: core: 15, cta: 3 initialized @(4,0)
GPGPU-Sim uArch: core: 16, cta: 3 initialized @(4,0)
GPGPU-Sim uArch: core: 17, cta: 3 initialized @(4,0)
GPGPU-Sim uArch: core: 18, cta: 3 initialized @(4,0)
GPGPU-Sim uArch: core: 19, cta: 3 initialized @(4,0)
GPGPU-Sim uArch: core: 20, cta: 3 initialized @(4,0)
GPGPU-Sim uArch: core: 21, cta: 3 initialized @(4,0)
GPGPU-Sim uArch: core: 22, cta: 3 initialized @(4,0)
GPGPU-Sim uArch: core: 23, cta: 3 initialized @(4,0)
GPGPU-Sim uArch: core:  0, cta: 3 initialized @(4,0)
GPGPU-Sim uArch: core:  1, cta: 4 initialized @(5,0)
GPGPU-Sim uArch: core:  2, cta: 4 initialized @(5,0)
GPGPU-Sim uArch: core:  3, cta: 4 initialized @(5,0)
GPGPU-Sim uArch: core:  4, cta: 4 initialized @(5,0)
GPGPU-Sim uArch: core:  5, cta: 4 initialized @(5,0)
GPGPU-Sim uArch: core:  6, cta: 4 initialized @(5,0)
GPGPU-Sim uArch: core:  7, cta: 4 initialized @(5,0)
GPGPU-Sim uArch: core:  8, cta: 4 initialized @(5,0)
GPGPU-Sim uArch: core:  9, cta: 4 initialized @(5,0)
GPGPU-Sim uArch: core: 10, cta: 4 initialized @(5,0)
GPGPU-Sim uArch: core: 11, cta: 4 initialized @(5,0)
GPGPU-Sim uArch: core: 12, cta: 4 initialized @(5,0)
GPGPU-Sim uArch: core: 13, cta: 4 initialized @(5,0)
GPGPU-Sim uArch: core: 14, cta: 4 initialized @(5,0)
GPGPU-Sim uArch: core: 15, cta: 4 initialized @(5,0)
GPGPU-Sim uArch: core: 16, cta: 4 initialized @(5,0)
GPGPU-Sim uArch: core: 17, cta: 4 initialized @(5,0)
GPGPU-Sim uArch: core: 18, cta: 4 initialized @(5,0)
GPGPU-Sim uArch: core: 19, cta: 4 initialized @(5,0)
GPGPU-Sim uArch: core: 20, cta: 4 initialized @(5,0)
GPGPU-Sim uArch: core: 21, cta: 4 initialized @(5,0)
GPGPU-Sim uArch: core: 22, cta: 4 initialized @(5,0)
GPGPU-Sim uArch: core: 23, cta: 4 initialized @(5,0)
GPGPU-Sim uArch: core:  0, cta: 4 initialized @(5,0)
GPGPU-Sim uArch: cycles simulated: 500  inst.: 15360 (ipc=30.7) sim_rate=15360 (inst/sec) elapsed = 0:0:00:01 / Sat Apr 24 02:55:46 2021
GPGPU-Sim PTX: 100000 instructions simulated : ctaid=(8,2,0) tid=(15,7,0)
GPGPU-Sim PTX: 200000 instructions simulated : ctaid=(1,6,0) tid=(15,1,0)
GPGPU-Sim PTX: 300000 instructions simulated : ctaid=(0,7,0) tid=(15,1,0)
GPGPU-Sim uArch: cycles simulated: 1500  inst.: 346816 (ipc=231.2) sim_rate=173408 (inst/sec) elapsed = 0:0:00:02 / Sat Apr 24 02:55:47 2021
GPGPU-Sim PTX: 400000 instructions simulated : ctaid=(2,0,0) tid=(15,3,0)
GPGPU-Sim PTX: 500000 instructions simulated : ctaid=(11,0,0) tid=(15,3,0)
GPGPU-Sim uArch: cycles simulated: 3000  inst.: 578112 (ipc=192.7) sim_rate=192704 (inst/sec) elapsed = 0:0:00:03 / Sat Apr 24 02:55:48 2021
GPGPU-Sim PTX: 600000 instructions simulated : ctaid=(12,3,0) tid=(15,7,0)
GPGPU-Sim PTX: 700000 instructions simulated : ctaid=(8,6,0) tid=(15,1,0)
GPGPU-Sim PTX: 800000 instructions simulated : ctaid=(3,3,0) tid=(15,3,0)
GPGPU-Sim PTX: 900000 instructions simulated : ctaid=(15,4,0) tid=(15,7,0)
GPGPU-Sim uArch: cycles simulated: 4000  inst.: 896992 (ipc=224.2) sim_rate=224248 (inst/sec) elapsed = 0:0:00:04 / Sat Apr 24 02:55:49 2021
GPGPU-Sim PTX: 1000000 instructions simulated : ctaid=(7,2,0) tid=(15,3,0)
GPGPU-Sim PTX: 1100000 instructions simulated : ctaid=(13,5,0) tid=(15,7,0)
GPGPU-Sim PTX: 1200000 instructions simulated : ctaid=(15,5,0) tid=(15,3,0)
GPGPU-Sim PTX: 1300000 instructions simulated : ctaid=(4,6,0) tid=(15,3,0)
GPGPU-Sim PTX: 1400000 instructions simulated : ctaid=(4,7,0) tid=(15,5,0)
GPGPU-Sim uArch: cycles simulated: 5000  inst.: 1402656 (ipc=280.5) sim_rate=280531 (inst/sec) elapsed = 0:0:00:05 / Sat Apr 24 02:55:50 2021
GPGPU-Sim PTX: 1500000 instructions simulated : ctaid=(2,0,0) tid=(15,5,0)
GPGPU-Sim PTX: 1600000 instructions simulated : ctaid=(5,7,0) tid=(15,1,0)
GPGPU-Sim PTX: 1700000 instructions simulated : ctaid=(14,4,0) tid=(15,5,0)
GPGPU-Sim PTX: 1800000 instructions simulated : ctaid=(4,1,0) tid=(15,3,0)
GPGPU-Sim PTX: 1900000 instructions simulated : ctaid=(8,5,0) tid=(15,5,0)
GPGPU-Sim PTX: WARNING (_1.ptx:936) ** reading undefined register '%r129' (cuid:0). Setting to 0X00000000. This is okay if you are simulating the native ISA
GPGPU-Sim PTX: 2000000 instructions simulated : ctaid=(12,1,0) tid=(15,5,0)
GPGPU-Sim uArch: cycles simulated: 6000  inst.: 1981120 (ipc=330.2) sim_rate=330186 (inst/sec) elapsed = 0:0:00:06 / Sat Apr 24 02:55:51 2021
GPGPU-Sim PTX: 2100000 instructions simulated : ctaid=(15,5,0) tid=(15,7,0)
GPGPU-Sim PTX: 2200000 instructions simulated : ctaid=(15,0,0) tid=(15,5,0)
GPGPU-Sim PTX: 2300000 instructions simulated : ctaid=(15,0,0) tid=(15,3,0)
GPGPU-Sim PTX: 2400000 instructions simulated : ctaid=(7,1,0) tid=(15,3,0)
GPGPU-Sim PTX: 2500000 instructions simulated : ctaid=(6,7,0) tid=(15,5,0)
GPGPU-Sim uArch: cycles simulated: 7000  inst.: 2488320 (ipc=355.5) sim_rate=355474 (inst/sec) elapsed = 0:0:00:07 / Sat Apr 24 02:55:52 2021
GPGPU-Sim PTX: 2600000 instructions simulated : ctaid=(8,3,0) tid=(15,1,0)
GPGPU-Sim PTX: 2700000 instructions simulated : ctaid=(11,4,0) tid=(15,5,0)
GPGPU-Sim PTX: 2800000 instructions simulated : ctaid=(10,3,0) tid=(15,1,0)
GPGPU-Sim PTX: 2900000 instructions simulated : ctaid=(6,1,0) tid=(15,3,0)
GPGPU-Sim PTX: 3000000 instructions simulated : ctaid=(13,5,0) tid=(15,5,0)
GPGPU-Sim uArch: cycles simulated: 8500  inst.: 2984960 (ipc=351.2) sim_rate=373120 (inst/sec) elapsed = 0:0:00:08 / Sat Apr 24 02:55:53 2021
GPGPU-Sim PTX: 3100000 instructions simulated : ctaid=(14,1,0) tid=(15,5,0)
GPGPU-Sim PTX: 3200000 instructions simulated : ctaid=(15,2,0) tid=(15,5,0)
GPGPU-Sim PTX: 3300000 instructions simulated : ctaid=(15,1,0) tid=(15,7,0)
GPGPU-Sim PTX: 3400000 instructions simulated : ctaid=(7,2,0) tid=(15,7,0)
GPGPU-Sim PTX: 3500000 instructions simulated : ctaid=(13,2,0) tid=(15,3,0)
GPGPU-Sim uArch: cycles simulated: 9500  inst.: 3436960 (ipc=361.8) sim_rate=381884 (inst/sec) elapsed = 0:0:00:09 / Sat Apr 24 02:55:54 2021
GPGPU-Sim PTX: 3600000 instructions simulated : ctaid=(8,6,0) tid=(15,7,0)
GPGPU-Sim PTX: 3700000 instructions simulated : ctaid=(11,2,0) tid=(15,3,0)
GPGPU-Sim PTX: 3800000 instructions simulated : ctaid=(8,4,0) tid=(15,5,0)
GPGPU-Sim PTX: 3900000 instructions simulated : ctaid=(5,6,0) tid=(15,1,0)
GPGPU-Sim PTX: 4000000 instructions simulated : ctaid=(8,3,0) tid=(15,3,0)
GPGPU-Sim PTX: 4100000 instructions simulated : ctaid=(9,0,0) tid=(15,1,0)
GPGPU-Sim PTX: 4200000 instructions simulated : ctaid=(0,3,0) tid=(15,3,0)
GPGPU-Sim PTX: 4300000 instructions simulated : ctaid=(12,6,0) tid=(15,5,0)
GPGPU-Sim uArch: cycles simulated: 11000  inst.: 4244768 (ipc=385.9) sim_rate=424476 (inst/sec) elapsed = 0:0:00:10 / Sat Apr 24 02:55:55 2021
GPGPU-Sim PTX: 4400000 instructions simulated : ctaid=(13,4,0) tid=(15,1,0)
GPGPU-Sim PTX: 4500000 instructions simulated : ctaid=(3,1,0) tid=(15,5,0)
GPGPU-Sim PTX: 4600000 instructions simulated : ctaid=(9,5,0) tid=(15,1,0)
GPGPU-Sim PTX: 4700000 instructions simulated : ctaid=(14,0,0) tid=(15,5,0)
GPGPU-Sim PTX: 4800000 instructions simulated : ctaid=(15,3,0) tid=(15,1,0)
GPGPU-Sim uArch: cycles simulated: 12000  inst.: 4743264 (ipc=395.3) sim_rate=431205 (inst/sec) elapsed = 0:0:00:11 / Sat Apr 24 02:55:56 2021
GPGPU-Sim PTX: 4900000 instructions simulated : ctaid=(10,1,0) tid=(15,1,0)
GPGPU-Sim PTX: 5000000 instructions simulated : ctaid=(0,7,0) tid=(15,7,0)
GPGPU-Sim PTX: 5100000 instructions simulated : ctaid=(13,4,0) tid=(15,1,0)
GPGPU-Sim PTX: 5200000 instructions simulated : ctaid=(2,4,0) tid=(15,5,0)
GPGPU-Sim PTX: 5300000 instructions simulated : ctaid=(13,2,0) tid=(15,7,0)
GPGPU-Sim PTX: 5400000 instructions simulated : ctaid=(13,1,0) tid=(15,3,0)
GPGPU-Sim PTX: 5500000 instructions simulated : ctaid=(15,4,0) tid=(13,1,0)
GPGPU-Sim PTX: 5600000 instructions simulated : ctaid=(6,7,0) tid=(1,1,0)
GPGPU-Sim PTX: 5700000 instructions simulated : ctaid=(13,0,0) tid=(6,7,0)
GPGPU-Sim uArch: cycles simulated: 13500  inst.: 5597097 (ipc=414.6) sim_rate=466424 (inst/sec) elapsed = 0:0:00:12 / Sat Apr 24 02:55:57 2021
GPGPU-Sim PTX: 5800000 instructions simulated : ctaid=(4,7,0) tid=(3,3,0)
GPGPU-Sim PTX: 5900000 instructions simulated : ctaid=(2,0,0) tid=(3,5,0)
GPGPU-Sim PTX: 6000000 instructions simulated : ctaid=(13,0,0) tid=(3,3,0)
GPGPU-Sim PTX: 6100000 instructions simulated : ctaid=(6,5,0) tid=(3,7,0)
GPGPU-Sim PTX: 6200000 instructions simulated : ctaid=(1,1,0) tid=(3,1,0)
GPGPU-Sim PTX: 6300000 instructions simulated : ctaid=(12,1,0) tid=(3,7,0)
GPGPU-Sim uArch: cycles simulated: 14000  inst.: 6198569 (ipc=442.8) sim_rate=476813 (inst/sec) elapsed = 0:0:00:13 / Sat Apr 24 02:55:58 2021
GPGPU-Sim PTX: 6400000 instructions simulated : ctaid=(15,2,0) tid=(3,7,0)
GPGPU-Sim PTX: 6500000 instructions simulated : ctaid=(4,5,0) tid=(3,5,0)
GPGPU-Sim PTX: 6600000 instructions simulated : ctaid=(3,1,0) tid=(12,7,0)
GPGPU-Sim PTX: 6700000 instructions simulated : ctaid=(7,1,0) tid=(10,5,0)
GPGPU-Sim PTX: 6800000 instructions simulated : ctaid=(3,4,0) tid=(7,0,0)
GPGPU-Sim PTX: 6900000 instructions simulated : ctaid=(5,0,0) tid=(4,3,0)
GPGPU-Sim PTX: 7000000 instructions simulated : ctaid=(8,6,0) tid=(13,4,0)
GPGPU-Sim PTX: 7100000 instructions simulated : ctaid=(10,4,0) tid=(7,4,0)
GPGPU-Sim PTX: 7200000 instructions simulated : ctaid=(5,0,0) tid=(7,2,0)
GPGPU-Sim uArch: cycles simulated: 15000  inst.: 7046026 (ipc=469.7) sim_rate=503287 (inst/sec) elapsed = 0:0:00:14 / Sat Apr 24 02:55:59 2021
GPGPU-Sim PTX: 7300000 instructions simulated : ctaid=(13,1,0) tid=(7,6,0)
GPGPU-Sim PTX: 7400000 instructions simulated : ctaid=(4,2,0) tid=(7,0,0)
GPGPU-Sim PTX: 7500000 instructions simulated : ctaid=(7,7,0) tid=(7,2,0)
GPGPU-Sim PTX: 7600000 instructions simulated : ctaid=(15,3,0) tid=(7,6,0)
GPGPU-Sim PTX: 7700000 instructions simulated : ctaid=(13,6,0) tid=(7,4,0)
GPGPU-Sim uArch: cycles simulated: 16500  inst.: 7465802 (ipc=452.5) sim_rate=497720 (inst/sec) elapsed = 0:0:00:15 / Sat Apr 24 02:56:00 2021
GPGPU-Sim PTX: 7800000 instructions simulated : ctaid=(0,1,0) tid=(7,4,0)
GPGPU-Sim PTX: 7900000 instructions simulated : ctaid=(0,0,0) tid=(7,6,0)
GPGPU-Sim PTX: 8000000 instructions simulated : ctaid=(14,4,0) tid=(7,2,0)
GPGPU-Sim PTX: 8100000 instructions simulated : ctaid=(14,5,0) tid=(7,2,0)
GPGPU-Sim PTX: 8200000 instructions simulated : ctaid=(7,6,0) tid=(7,0,0)
GPGPU-Sim PTX: 8300000 instructions simulated : ctaid=(10,5,0) tid=(7,2,0)
GPGPU-Sim uArch: cycles simulated: 17500  inst.: 8012906 (ipc=457.9) sim_rate=500806 (inst/sec) elapsed = 0:0:00:16 / Sat Apr 24 02:56:01 2021
GPGPU-Sim PTX: 8400000 instructions simulated : ctaid=(14,3,0) tid=(7,0,0)
GPGPU-Sim PTX: 8500000 instructions simulated : ctaid=(5,7,0) tid=(7,6,0)
GPGPU-Sim PTX: 8600000 instructions simulated : ctaid=(13,0,0) tid=(7,0,0)
GPGPU-Sim PTX: 8700000 instructions simulated : ctaid=(15,0,0) tid=(7,6,0)
GPGPU-Sim uArch: cycles simulated: 18000  inst.: 8404490 (ipc=466.9) sim_rate=494381 (inst/sec) elapsed = 0:0:00:17 / Sat Apr 24 02:56:02 2021
GPGPU-Sim PTX: 8800000 instructions simulated : ctaid=(9,3,0) tid=(7,6,0)
GPGPU-Sim PTX: 8900000 instructions simulated : ctaid=(4,0,0) tid=(7,2,0)
GPGPU-Sim PTX: 9000000 instructions simulated : ctaid=(5,6,0) tid=(7,4,0)
GPGPU-Sim PTX: 9100000 instructions simulated : ctaid=(1,1,0) tid=(7,4,0)
GPGPU-Sim PTX: 9200000 instructions simulated : ctaid=(3,5,0) tid=(7,2,0)
GPGPU-Sim uArch: cycles simulated: 19000  inst.: 8965610 (ipc=471.9) sim_rate=498089 (inst/sec) elapsed = 0:0:00:18 / Sat Apr 24 02:56:03 2021
GPGPU-Sim PTX: 9300000 instructions simulated : ctaid=(11,5,0) tid=(7,6,0)
GPGPU-Sim PTX: 9400000 instructions simulated : ctaid=(14,6,0) tid=(7,2,0)
GPGPU-Sim PTX: 9500000 instructions simulated : ctaid=(8,5,0) tid=(7,2,0)
GPGPU-Sim PTX: 9600000 instructions simulated : ctaid=(12,1,0) tid=(7,6,0)
GPGPU-Sim PTX: 9700000 instructions simulated : ctaid=(13,2,0) tid=(7,6,0)
GPGPU-Sim PTX: 9800000 instructions simulated : ctaid=(12,5,0) tid=(7,6,0)
GPGPU-Sim uArch: cycles simulated: 20000  inst.: 9496746 (ipc=474.8) sim_rate=499828 (inst/sec) elapsed = 0:0:00:19 / Sat Apr 24 02:56:04 2021
GPGPU-Sim PTX: 9900000 instructions simulated : ctaid=(13,4,0) tid=(7,0,0)
GPGPU-Sim PTX: 10000000 instructions simulated : ctaid=(12,2,0) tid=(7,0,0)
GPGPU-Sim PTX: 10100000 instructions simulated : ctaid=(6,4,0) tid=(7,0,0)
GPGPU-Sim PTX: 10200000 instructions simulated : ctaid=(7,2,0) tid=(7,4,0)
GPGPU-Sim PTX: 10300000 instructions simulated : ctaid=(15,4,0) tid=(7,6,0)
GPGPU-Sim PTX: 10400000 instructions simulated : ctaid=(3,0,0) tid=(7,6,0)
GPGPU-Sim uArch: cycles simulated: 21000  inst.: 10087370 (ipc=480.4) sim_rate=504368 (inst/sec) elapsed = 0:0:00:20 / Sat Apr 24 02:56:05 2021
GPGPU-Sim PTX: 10500000 instructions simulated : ctaid=(12,0,0) tid=(7,6,0)
GPGPU-Sim PTX: 10600000 instructions simulated : ctaid=(10,6,0) tid=(7,2,0)
GPGPU-Sim PTX: 10700000 instructions simulated : ctaid=(2,0,0) tid=(7,2,0)
GPGPU-Sim PTX: 10800000 instructions simulated : ctaid=(12,4,0) tid=(7,2,0)
GPGPU-Sim PTX: 10900000 instructions simulated : ctaid=(13,0,0) tid=(8,0,0)
GPGPU-Sim PTX: 11000000 instructions simulated : ctaid=(14,2,0) tid=(4,4,0)
GPGPU-Sim uArch: cycles simulated: 22000  inst.: 10698872 (ipc=486.3) sim_rate=509470 (inst/sec) elapsed = 0:0:00:21 / Sat Apr 24 02:56:06 2021
GPGPU-Sim PTX: 11100000 instructions simulated : ctaid=(4,0,0) tid=(3,2,0)
GPGPU-Sim PTX: 11200000 instructions simulated : ctaid=(10,3,0) tid=(3,0,0)
GPGPU-Sim PTX: 11300000 instructions simulated : ctaid=(11,0,0) tid=(11,6,0)
GPGPU-Sim PTX: 11400000 instructions simulated : ctaid=(5,4,0) tid=(15,5,0)
GPGPU-Sim PTX: 11500000 instructions simulated : ctaid=(15,6,0) tid=(15,5,0)
GPGPU-Sim PTX: 11600000 instructions simulated : ctaid=(2,3,0) tid=(15,3,0)
GPGPU-Sim PTX: 11700000 instructions simulated : ctaid=(6,4,0) tid=(15,7,0)
GPGPU-Sim PTX: 11800000 instructions simulated : ctaid=(5,1,0) tid=(1,0,0)
GPGPU-Sim PTX: 11900000 instructions simulated : ctaid=(1,4,0) tid=(15,3,0)
GPGPU-Sim PTX: 12000000 instructions simulated : ctaid=(9,4,0) tid=(13,5,0)
GPGPU-Sim uArch: cycles simulated: 23500  inst.: 11639282 (ipc=495.3) sim_rate=529058 (inst/sec) elapsed = 0:0:00:22 / Sat Apr 24 02:56:07 2021
GPGPU-Sim PTX: 12100000 instructions simulated : ctaid=(7,3,0) tid=(12,7,0)
GPGPU-Sim PTX: 12200000 instructions simulated : ctaid=(10,4,0) tid=(15,5,0)
GPGPU-Sim PTX: 12300000 instructions simulated : ctaid=(11,3,0) tid=(6,7,0)
Replication found 
Replication found 
Replication found 
Replication found 
Replication found 
Replication found 
Replication found 
Replication found 
Replication found 
Replication found 
Replication found 
Replication found 
Replication found 
Replication found 
Replication found 
Replication found 
Replication found 
Replication found 
Replication found 
GPGPU-Sim PTX: 12400000 instructions simulated : ctaid=(3,0,0) tid=(10,7,0)
Replication found 
Replication found 
Replication found 
Replication found 
Replication found 
Replication found 
Replication found 
Replication found 
Replication found 
Replication found 
Replication found 
Replication found 
Replication found 
Replication found 
Replication found 
Replication found 
Replication found 
Replication found 
Replication found 
Replication found 
Replication found 
Replication found 
Replication found 
Replication found 
Replication found 
Replication found 
Replication found 
Replication found 
Replication found 
Replication found 
Replication found 
Replication found 
Replication found 
Replication found 
Replication found 
Replication found 
Replication found 
Replication found 
Replication found 
Replication found 
Replication found 
Replication found 
Replication found 
Replication found 
Replication found 
Replication found 
Replication found 
Replication found 
Replication found 
Replication found 
Replication found 
Replication found 
Replication found 
Replication found 
Replication found 
Replication found 
Replication found 
Replication found 
Replication found 
Replication found 
Replication found 
Replication found 
Replication found 
Replication found 
Replication found 
Replication found 
Replication found 
Replication found 
Replication found 
Replication found 
Replication found 
Replication found 
Replication found 
Replication found 
Replication found 
Replication found 
Replication found 
Replication found 
Replication found 
Replication found 
Replication found 
Replication found 
Replication found 
Replication found 
Replication found 
Replication found 
Replication found 
Replication found 
Replication found 
Replication found 
Replication found 
Replication found 
Replication found 
Replication found 
Replication found 
Replication found 
Replication found 
Replication found 
Replication found 
Replication found 
Replication found 
Replication found 
Replication found 
Replication found 
Replication found 
Replication found 
Replication found 
Replication found 
Replication found 
Replication found 
Replication found 
Replication found 
Replication found 
Replication found 
Replication found 
Replication found 
Replication found 
Replication found 
Replication found 
Replication found 
Replication found 
Replication found 
Replication found 
Replication found 
Replication found 
Replication found 
Replication found 
Replication found 
Replication found 
Replication found 
Replication found 
Replication found 
Replication found 
Replication found 
Replication found 
Replication found 
Replication found 
Replication found 
Replication found 
Replication found 
Replication found 
Replication found 
Replication found 
Replication found 
Replication found 
Replication found 
Replication found 
Replication found 
Replication found 
Replication found 
Replication found 
Replication found 
Replication found 
Replication found 
Replication found 
Replication found 
Replication found 
Replication found 
Replication found 
Replication found 
Replication found 
Replication found 
Replication found 
Replication found 
Replication found 
Replication found 
Replication found 
Replication found 
GPGPU-Sim PTX: 12500000 instructions simulated : ctaid=(6,5,0) tid=(8,2,0)
Replication found 
Replication found 
Replication found 
Replication found 
Replication found 
Replication found 
Replication found 
Replication found 
Replication found 
Replication found 
Replication found 
Replication found 
Replication found 
Replication found 
Replication found 
Replication found 
Replication found 
Replication found 
Replication found 
Replication found 
GPGPU-Sim uArch: cycles simulated: 24500  inst.: 12081370 (ipc=493.1) sim_rate=525276 (inst/sec) elapsed = 0:0:00:23 / Sat Apr 24 02:56:08 2021
Replication found 
Replication found 
Replication found 
Replication found 
Replication found 
Replication found 
Replication found 
Replication found 
Replication found 
Replication found 
Replication found 
Replication found 
Replication found 
Replication found 
Replication found 
Replication found 
Replication found 
Replication found 
Replication found 
Replication found 
Replication found 
Replication found 
Replication found 
Replication found 
GPGPU-Sim uArch: Shader 0 finished CTA #1 (24561,0), 4 CTAs running
Replication found 
GPGPU-Sim uArch: core:  0, cta: 1 initialized @(24562,0)
GPGPU-Sim uArch: Shader 15 finished CTA #0 (24563,0), 4 CTAs running
GPGPU-Sim uArch: core: 15, cta: 0 initialized @(24564,0)
Replication found 
Replication found 
Replication found 
Replication found 
GPGPU-Sim uArch: Shader 15 finished CTA #2 (24573,0), 4 CTAs running
GPGPU-Sim uArch: core: 15, cta: 2 initialized @(24574,0)
Replication found 
Replication found 
GPGPU-Sim uArch: Shader 0 finished CTA #3 (24577,0), 4 CTAs running
GPGPU-Sim uArch: core:  0, cta: 3 initialized @(24578,0)
Replication found 
Replication found 
Replication found 
Replication found 
Replication found 
GPGPU-Sim uArch: Shader 15 finished CTA #4 (24646,0), 4 CTAs running
GPGPU-Sim uArch: core: 15, cta: 4 initialized @(24647,0)
GPGPU-Sim uArch: Shader 14 finished CTA #1 (24667,0), 4 CTAs running
GPGPU-Sim uArch: core: 14, cta: 1 initialized @(24668,0)
GPGPU-Sim uArch: Shader 5 finished CTA #2 (24675,0), 4 CTAs running
GPGPU-Sim uArch: core:  5, cta: 2 initialized @(24676,0)
GPGPU-Sim uArch: Shader 14 finished CTA #0 (24685,0), 4 CTAs running
GPGPU-Sim uArch: core: 14, cta: 0 initialized @(24686,0)
GPGPU-Sim uArch: Shader 13 finished CTA #2 (24695,0), 4 CTAs running
GPGPU-Sim uArch: core: 13, cta: 2 initialized @(24696,0)
GPGPU-Sim uArch: Shader 13 finished CTA #3 (24703,0), 4 CTAs running
GPGPU-Sim uArch: core: 13, cta: 3 initialized @(24704,0)
GPGPU-Sim uArch: Shader 22 finished CTA #1 (24705,0), 4 CTAs running
GPGPU-Sim uArch: core: 22, cta: 1 initialized @(24706,0)
GPGPU-Sim uArch: Shader 22 finished CTA #2 (24717,0), 4 CTAs running
GPGPU-Sim uArch: core: 22, cta: 2 initialized @(24718,0)
GPGPU-Sim uArch: Shader 13 finished CTA #4 (24755,0), 4 CTAs running
GPGPU-Sim uArch: core: 13, cta: 4 initialized @(24756,0)
GPGPU-Sim uArch: Shader 5 finished CTA #3 (24771,0), 4 CTAs running
GPGPU-Sim uArch: core:  5, cta: 3 initialized @(24772,0)
GPGPU-Sim uArch: Shader 5 finished CTA #4 (24783,0), 4 CTAs running
GPGPU-Sim uArch: core:  5, cta: 4 initialized @(24784,0)
GPGPU-Sim uArch: Shader 21 finished CTA #1 (24791,0), 4 CTAs running
GPGPU-Sim uArch: core: 21, cta: 1 initialized @(24792,0)
GPGPU-Sim uArch: Shader 14 finished CTA #2 (24799,0), 4 CTAs running
GPGPU-Sim uArch: core: 14, cta: 2 initialized @(24800,0)
GPGPU-Sim uArch: Shader 22 finished CTA #3 (24803,0), 4 CTAs running
GPGPU-Sim uArch: core: 22, cta: 3 initialized @(24804,0)
GPGPU-Sim uArch: Shader 14 finished CTA #3 (24811,0), 4 CTAs running
GPGPU-Sim uArch: Shader 22 finished CTA #4 (24811,0), 4 CTAs running
GPGPU-Sim uArch: core: 14, cta: 3 initialized @(24812,0)
GPGPU-Sim uArch: core: 22, cta: 4 initialized @(24812,0)
GPGPU-Sim uArch: Shader 8 finished CTA #1 (24813,0), 4 CTAs running
GPGPU-Sim uArch: core:  8, cta: 1 initialized @(24814,0)
Replication found 
Replication found 
GPGPU-Sim uArch: Shader 14 finished CTA #4 (24837,0), 4 CTAs running
GPGPU-Sim uArch: core: 14, cta: 4 initialized @(24838,0)
Replication found 
GPGPU-Sim uArch: Shader 7 finished CTA #1 (24845,0), 4 CTAs running
GPGPU-Sim uArch: core:  7, cta: 1 initialized @(24846,0)
GPGPU-Sim uArch: Shader 8 finished CTA #3 (24851,0), 4 CTAs running
Replication found 
GPGPU-Sim uArch: core:  8, cta: 3 initialized @(24852,0)
GPGPU-Sim uArch: Shader 21 finished CTA #2 (24855,0), 4 CTAs running
GPGPU-Sim uArch: core: 21, cta: 2 initialized @(24856,0)
GPGPU-Sim uArch: Shader 7 finished CTA #3 (24867,0), 4 CTAs running
GPGPU-Sim uArch: core:  7, cta: 3 initialized @(24868,0)
GPGPU-Sim uArch: Shader 21 finished CTA #3 (24879,0), 4 CTAs running
GPGPU-Sim uArch: core: 21, cta: 3 initialized @(24880,0)
Replication found 
Replication found 
GPGPU-Sim uArch: Shader 21 finished CTA #4 (24901,0), 4 CTAs running
GPGPU-Sim uArch: core: 21, cta: 4 initialized @(24902,0)
Replication found 
GPGPU-Sim uArch: Shader 23 finished CTA #1 (24995,0), 4 CTAs running
GPGPU-Sim uArch: core: 23, cta: 1 initialized @(24996,0)
GPGPU-Sim uArch: cycles simulated: 25000  inst.: 12156510 (ipc=486.3) sim_rate=506521 (inst/sec) elapsed = 0:0:00:24 / Sat Apr 24 02:56:09 2021
GPGPU-Sim uArch: Shader 6 finished CTA #1 (25007,0), 4 CTAs running
GPGPU-Sim uArch: core:  6, cta: 1 initialized @(25008,0)
GPGPU-Sim uArch: Shader 16 finished CTA #0 (25011,0), 4 CTAs running
GPGPU-Sim uArch: core: 16, cta: 0 initialized @(25012,0)
GPGPU-Sim uArch: Shader 23 finished CTA #3 (25051,0), 4 CTAs running
GPGPU-Sim uArch: core: 23, cta: 3 initialized @(25052,0)
GPGPU-Sim uArch: Shader 16 finished CTA #2 (25053,0), 4 CTAs running
GPGPU-Sim uArch: core: 16, cta: 2 initialized @(25054,0)
GPGPU-Sim PTX: 12600000 instructions simulated : ctaid=(6,0,0) tid=(13,2,0)
GPGPU-Sim uArch: Shader 6 finished CTA #2 (25069,0), 4 CTAs running
GPGPU-Sim uArch: core:  6, cta: 2 initialized @(25070,0)
GPGPU-Sim uArch: Shader 23 finished CTA #4 (25071,0), 4 CTAs running
GPGPU-Sim uArch: core: 23, cta: 4 initialized @(25072,0)
GPGPU-Sim uArch: Shader 16 finished CTA #4 (25074,0), 4 CTAs running
GPGPU-Sim uArch: core: 16, cta: 4 initialized @(25075,0)
Replication found 
Replication found 
[...]
traffic_breakdown_coretomem[L1_WRBK_ACC] = 794376 {136:5841,}
traffic_breakdown_coretomem[LOCAL_ACC_R] = 63232 {8:7904,}
traffic_breakdown_coretomem[LOCAL_ACC_W] = 1416264 {40:103,72:14,136:10376,}
traffic_breakdown_memtocore[CONST_ACC_R] = 8640 {72:120,}
traffic_breakdown_memtocore[GLOBAL_ACC_R] = 505920 {136:3720,}
traffic_breakdown_memtocore[GLOBAL_ACC_W] = 65536 {8:8192,}
traffic_breakdown_memtocore[INST_ACC_R] = 1873808 {136:13778,}
traffic_breakdown_memtocore[LOCAL_ACC_R] = 1074944 {136:7904,}
traffic_breakdown_memtocore[LOCAL_ACC_W] = 83944 {8:10493,}
maxmrqlatency = 1046 
maxdqlatency = 0 
maxmflatency = 2191 
averagemflatency = 284 
max_icnt2mem_latency = 1199 
max_icnt2sh_latency = 105215 
mrq_lat_table:7532 	646 	763 	1438 	2548 	2284 	1842 	964 	89 	17 	1 	0 	0 	0 	0 	0 	0 	0 	0 	0 	0 	0 	0 	0 	0 	0 	0 	0 	0 	0 	0 	0 	
dq_lat_table:0 	0 	0 	0 	0 	0 	0 	0 	0 	0 	0 	0 	0 	0 	0 	0 	0 	0 	0 	0 	0 	0 	0 	0 	0 	0 	0 	0 	0 	0 	0 	0 	
mf_lat_table:0 	0 	0 	0 	0 	0 	0 	18511 	8835 	2489 	592 	2 	0 	0 	0 	0 	0 	0 	0 	0 	0 	0 	0 	0 	0 	0 	0 	0 	0 	0 	0 	0 	
icnt2mem_lat_table:0 	0 	0 	23026 	8801 	7205 	6770 	2209 	1507 	474 	56 	0 	0 	0 	0 	0 	0 	0 	0 	0 	0 	0 	0 	0 	
icnt2sh_lat_table:0 	0 	0 	5853 	5005 	862 	24 	0 	0 	0 	618 	1714 	1028 	512 	3229 	5903 	5681 	0 	0 	0 	0 	0 	0 	0 	
mf_lat_pw_table:0 	0 	0 	0 	0 	0 	0 	152 	16 	8 	0 	0 	0 	0 	0 	0 	0 	0 	0 	0 	0 	0 	0 	0 	0 	0 	0 	0 	0 	0 	0 	0 	
maximum concurrent accesses to same row:
dram[0]:        42        36        40        40        32        38        60        32        64        64        72        86        27        24        64        64 
dram[1]:        32        16        40        40        32        34        52        32        64        64        67        52        49        26        64        67 
dram[2]:        36        34        40        40        36        35        32        57        64        64        45        66        59        24        64        64 
dram[3]:        22        22        40        40        32        33        32        53        64        64        80        75        30        31        64        64 
dram[4]:        36        36        40        40        34        36        55        32        64        64        69        56        23        42        64        64 
dram[5]:        18        22        40        40        32        32        45        33        64        64        45        65        21        38        64        64 
maximum service time to same row:
dram[0]:     16382     22979     33938     26677     11357     21793     16992     14705     14585     14748     26957     28871     29068     31322     26890     27181 
dram[1]:     15850     19404     41250     41737     14932     17828     17047     11003     14392     14747     27362     28694     31183     32002     26941     27578 
dram[2]:     14444     18477     26322     26818     13498     21751     10825     17653     14612     14724     27561     28414     30921     31336     26975     27338 
dram[3]:     16480     20951     27556     27196     14687     18759     10782     18378     14610     14797     29510     28734     31864     31704     27166     27375 
dram[4]:     21084     17713     26577     26867     11065     12871     16910     13507     14594     14753     27954     27976     31045     30566     27375     27321 
dram[5]:     21005     17007     27526     27664     19006     11394     17412     11294     14540     14750     27937     27907     31610     32009     27278     27381 
average row accesses per activate:
dram[0]:  3.607143  4.205128  4.000000  4.368421  3.982143  5.117647  3.933333  4.295455  4.919355  6.357143  4.454545  8.416667  5.090909  6.590909  5.682927  7.185185 
dram[1]:  3.186441  4.435897  4.750000  5.437500  4.566038  4.214286  4.125000  4.500000  5.122807  5.700000  4.625000  6.655172  6.791667  7.095238  6.352941 12.266666 
dram[2]:  3.847826  5.125000  4.578948  6.800000  4.860465  4.558139  4.234043  6.285714  5.470588  9.392858  6.424242  9.105263  6.458333  4.906250  8.772727 15.083333 
dram[3]:  3.450980  4.057143  5.769231  6.600000  3.882353  5.235294  4.700000  7.200000  5.036364  7.870968  7.148148  7.458333  4.666667  6.458333  9.888889 15.818182 
dram[4]:  3.761905  3.355932  4.722222  3.793103  4.571429  4.053571  4.191489  3.447761  5.933333  4.982143  6.290323  4.611111  5.346154  6.444445  6.862069  5.325582 
dram[5]:  3.346154  3.702128  4.333333  3.629630  5.025641  4.674418  4.020000  4.521739  4.500000  4.793103  5.729730  6.142857  6.153846  6.346154  6.028572  6.200000 
average row locality = 18124/3537 = 5.124116
number of total memory accesses made:
dram[0]:         0         0         0         0         0         0         0         0         0         0         0         0         0         0         0         0 
dram[1]:         0         0         0         0         0         0         0         0         0         0         0         0         0         0         0         0 
dram[2]:         0         0         0         0         0         0         0         0         0         0         0         0         0         0         0         0 
dram[3]:         0         0         0         0         0         0         0         0         0         0         0         0         0         0         0         0 
dram[4]:         0         0         0         0         0         0         0         0         0         0         0         0         0         0         0         0 
dram[5]:         0         0         0         0         0         0         0         0         0         0         0         0         0         0         0         0 
total accesses: 0
min_bank_accesses = 0!
min_chip_accesses = 0!
number of total read accesses:
dram[0]:       114        92        79        63       115        90       118        95       139       127       113        90        91        72       109        93 
dram[1]:       111        96        75        66       123        91       110        97       136       136       110        86        83        77       101        90 
dram[2]:        94        87        62        53       108        99        97        89       129       133        99        83        76        80        93        85 
dram[3]:        93        73        57        51       102        97        94        93       130       124        91        86        79        72        89        81 
dram[4]:        90       107        63        76        98       117        94       114       127       132        90       118        71        93        91       106 
dram[5]:        97        97        65        70       102       105       101        99       133       131       103       100        78        86        97       105 
total reads: 9223
bank skew: 139/51 = 2.73
chip skew: 1600/1412 = 1.13
number of total write accesses:
dram[0]:        88        72        37        20       108        84       118        94       166       140       132       112        77        73       124       101 
dram[1]:        77        77        39        21       119        86       121       101       156       149       112       107        80        72       115        94 
dram[2]:        83        77        25        15       101        97       102        87       150       130       113        90        79        77       100        96 
dram[3]:        83        69        18        15        96        81        94        87       147       120       102        93        75        83        89        93 
dram[4]:        68        91        22        34        94       110       103       117       140       147       105       131        68        81       108       123 
dram[5]:        77        77        26        28        94        96       100       109       155       147       109       115        82        79       114       112 
total reads: 8901
bank skew: 166/15 = 11.07
chip skew: 1546/1345 = 1.15
average mf latency per bank:
dram[0]:        437       496       341       468       496       569       642       559       375       437       437       519       376       399       402       465
dram[1]:        703       480       319       447       432       539       544       564       385       387       522       537       372       392       439       462
dram[2]:        514       488       427       520       504       606       580       831       435       444       530       621       375       384       494       488
dram[3]:        472       543       480       493       493       581       619       643       425       459       571       586       387       381       520       487
dram[4]:        501       405       411       345       530       460       675       489       409       443       529       466       417       381       442       407
dram[5]:        464       479       365       332       469       507       529       565       374       404       508       509       366       372       422       413
maximum mf latency per bank:
dram[0]:       1394      1155       847      1132      1538      1578      1575      1645      1317      1174      1401      1245       850      1132      1130      1131
dram[1]:       1436      1231      1328      1299      1754      1438      2191      1609      1526       982      1567      1273      1411       949      1502       980
dram[2]:       1314      1128      1199       952      1962      1782      1828      1823      1555      1643      1542      1194      1130      1073      1558      1553
dram[3]:       1347      1243      1255      1300      1316      1474      1487      1436      1250      1135      1252      1159      1187      1240      1312      1091
dram[4]:       1215      1427      1320       938      1556      1615      1641      1533      1465      1542      1138      1438      1310      1279      1458      1412
dram[5]:       1323      1327       913       788      1378      1443      1230      1298      1132      1142      1321      1394       818       822      1090      1084
Memory Partition 0: 
Cache L2_bank_000:
MSHR contents

Cache L2_bank_001:
MSHR contents

In Dram Latency Queue (total = 0): 
DRAM[0]: 16 bks, busW=4 BL=8 CL=12, tRRD=2 tCCD=6, tRCD=12 tRAS=28 tRP=12 tRC=40
n_cmd=138884 n_nop=131872 n_act=643 n_pre=627 n_req=3146 n_rd=3200 n_write=2542 bw_util=0.08269
n_activity=32880 dram_eff=0.3493
bk0: 228a 133377i bk1: 184a 134206i bk2: 158a 136804i bk3: 126a 137185i bk4: 230a 132928i bk5: 180a 133250i bk6: 236a 132771i bk7: 190a 133682i bk8: 278a 132438i bk9: 254a 132865i bk10: 226a 132933i bk11: 180a 134013i bk12: 182a 135806i bk13: 144a 136344i bk14: 218a 133166i bk15: 186a 133882i 
dram_util_bins: 0 0 0 0 0 0 0 0 0 0
dram_eff_bins: 0 0 0 0 0 0 0 0 0 0
mrqq: max=16 avg=0.901825
Memory Partition 1: 
Cache L2_bank_002:
MSHR contents

Cache L2_bank_003:
MSHR contents

In Dram Latency Queue (total = 0): 
DRAM[1]: 16 bks, busW=4 BL=8 CL=12, tRRD=2 tCCD=6, tRCD=12 tRAS=28 tRP=12 tRC=40
n_cmd=138884 n_nop=131987 n_act=611 n_pre=595 n_req=3114 n_rd=3176 n_write=2515 bw_util=0.08195
n_activity=32259 dram_eff=0.3528
bk0: 222a 133739i bk1: 192a 133835i bk2: 150a 136635i bk3: 132a 137154i bk4: 246a 132413i bk5: 182a 133679i bk6: 220a 132792i bk7: 194a 133879i bk8: 272a 133018i bk9: 272a 132895i bk10: 220a 133534i bk11: 172a 133798i bk12: 166a 136018i bk13: 154a 136472i bk14: 202a 133972i bk15: 180a 134939i 
dram_util_bins: 0 0 0 0 0 0 0 0 0 0
dram_eff_bins: 0 0 0 0 0 0 0 0 0 0
mrqq: max=16 avg=0.828944
Memory Partition 2: 
Cache L2_bank_004:
MSHR contents

Cache L2_bank_005:
MSHR contents

In Dram Latency Queue (total = 0): 
DRAM[2]: 16 bks, busW=4 BL=8 CL=12, tRRD=2 tCCD=6, tRCD=12 tRAS=28 tRP=12 tRC=40
n_cmd=138884 n_nop=132695 n_act=489 n_pre=473 n_req=2889 n_rd=2934 n_write=2293 bw_util=0.07527
n_activity=28330 dram_eff=0.369
bk0: 188a 133630i bk1: 174a 133858i bk2: 124a 137110i bk3: 106a 137638i bk4: 216a 133011i bk5: 198a 132590i bk6: 194a 133902i bk7: 178a 133918i bk8: 258a 132942i bk9: 266a 133413i bk10: 198a 133449i bk11: 166a 133969i bk12: 152a 136302i bk13: 160a 135861i bk14: 186a 134264i bk15: 170a 134672i 
dram_util_bins: 0 0 0 0 0 0 0 0 0 0
dram_eff_bins: 0 0 0 0 0 0 0 0 0 0
mrqq: max=16 avg=0.847081
Memory Partition 3: 
Cache L2_bank_006:
MSHR contents

Cache L2_bank_007:
MSHR contents

In Dram Latency Queue (total = 0): 
DRAM[3]: 16 bks, busW=4 BL=8 CL=12, tRRD=2 tCCD=6, tRCD=12 tRAS=28 tRP=12 tRC=40
n_cmd=138884 n_nop=132955 n_act=482 n_pre=466 n_req=2757 n_rd=2824 n_write=2157 bw_util=0.07173
n_activity=27997 dram_eff=0.3558
bk0: 186a 133900i bk1: 146a 134482i bk2: 114a 137492i bk3: 102a 137595i bk4: 204a 132935i bk5: 194a 133294i bk6: 188a 133903i bk7: 186a 133754i bk8: 260a 133331i bk9: 248a 133892i bk10: 182a 134002i bk11: 172a 134120i bk12: 158a 136193i bk13: 144a 136273i bk14: 178a 134920i bk15: 162a 134897i 
dram_util_bins: 0 0 0 0 0 0 0 0 0 0
dram_eff_bins: 0 0 0 0 0 0 0 0 0 0
mrqq: max=16 avg=0.784129
Memory Partition 4: 
Cache L2_bank_008:
MSHR contents

Cache L2_bank_009:
MSHR contents

In Dram Latency Queue (total = 0): 
DRAM[4]: 16 bks, busW=4 BL=8 CL=12, tRRD=2 tCCD=6, tRCD=12 tRAS=28 tRP=12 tRC=40
n_cmd=138884 n_nop=131863 n_act=671 n_pre=655 n_req=3129 n_rd=3174 n_write=2521 bw_util=0.08201
n_activity=32871 dram_eff=0.3465
bk0: 180a 133992i bk1: 214a 133218i bk2: 126a 137284i bk3: 152a 136690i bk4: 196a 133136i bk5: 234a 132229i bk6: 188a 133366i bk7: 228a 132610i bk8: 254a 132878i bk9: 264a 132345i bk10: 180a 133624i bk11: 236a 132510i bk12: 142a 136196i bk13: 186a 135871i bk14: 182a 133822i bk15: 212a 133035i 
dram_util_bins: 0 0 0 0 0 0 0 0 0 0
dram_eff_bins: 0 0 0 0 0 0 0 0 0 0
mrqq: max=16 avg=0.945753
Memory Partition 5: 
Cache L2_bank_010:
MSHR contents

Cache L2_bank_011:
MSHR contents

In Dram Latency Queue (total = 0): 
DRAM[5]: 16 bks, busW=4 BL=8 CL=12, tRRD=2 tCCD=6, tRCD=12 tRAS=28 tRP=12 tRC=40
n_cmd=138884 n_nop=131990 n_act=641 n_pre=625 n_req=3089 n_rd=3138 n_write=2490 bw_util=0.08105
n_activity=32176 dram_eff=0.3498
bk0: 194a 133223i bk1: 194a 133683i bk2: 130a 137053i bk3: 140a 136684i bk4: 204a 133199i bk5: 210a 132481i bk6: 202a 133239i bk7: 198a 133449i bk8: 266a 132715i bk9: 262a 132758i bk10: 206a 133413i bk11: 200a 133166i bk12: 156a 136046i bk13: 172a 135982i bk14: 194a 133994i bk15: 210a 133985i 
dram_util_bins: 0 0 0 0 0 0 0 0 0 0
dram_eff_bins: 0 0 0 0 0 0 0 0 0 0
mrqq: max=16 avg=0.865917

========= L2 cache stats =========
L2_cache_bank[0]: Access = 4629, Miss = 878, Miss_rate = 0.190, Pending_hits = 126, Reservation_fails = 808
L2_cache_bank[1]: Access = 4283, Miss = 722, Miss_rate = 0.169, Pending_hits = 114, Reservation_fails = 935
L2_cache_bank[2]: Access = 4053, Miss = 849, Miss_rate = 0.209, Pending_hits = 118, Reservation_fails = 1454
L2_cache_bank[3]: Access = 4304, Miss = 739, Miss_rate = 0.172, Pending_hits = 106, Reservation_fails = 453
L2_cache_bank[4]: Access = 4043, Miss = 758, Miss_rate = 0.187, Pending_hits = 123, Reservation_fails = 743
L2_cache_bank[5]: Access = 4229, Miss = 709, Miss_rate = 0.168, Pending_hits = 116, Reservation_fails = 541
L2_cache_bank[6]: Access = 4141, Miss = 735, Miss_rate = 0.177, Pending_hits = 101, Reservation_fails = 707
L2_cache_bank[7]: Access = 3946, Miss = 677, Miss_rate = 0.172, Pending_hits = 111, Reservation_fails = 302
L2_cache_bank[8]: Access = 3723, Miss = 724, Miss_rate = 0.194, Pending_hits = 119, Reservation_fails = 332
L2_cache_bank[9]: Access = 4609, Miss = 863, Miss_rate = 0.187, Pending_hits = 118, Reservation_fails = 478
L2_cache_bank[10]: Access = 3790, Miss = 776, Miss_rate = 0.205, Pending_hits = 113, Reservation_fails = 281
L2_cache_bank[11]: Access = 4298, Miss = 793, Miss_rate = 0.185, Pending_hits = 111, Reservation_fails = 399
L2_total_cache_accesses = 50048
L2_total_cache_misses = 9223
L2_total_cache_miss_rate = 0.1843
L2_total_cache_pending_hits = 1376
L2_total_cache_reservation_fails = 7433
L2_total_cache_breakdown:
	L2_cache_stats_breakdown[GLOBAL_ACC_R][HIT] = 3644
	L2_cache_stats_breakdown[GLOBAL_ACC_R][MISS] = 76
	L2_cache_stats_breakdown[LOCAL_ACC_R][HIT] = 4290
	L2_cache_stats_breakdown[LOCAL_ACC_R][HIT_RESERVED] = 15
	L2_cache_stats_breakdown[LOCAL_ACC_R][MISS] = 3599
	L2_cache_stats_breakdown[LOCAL_ACC_R][RESERVATION_FAIL] = 69
	L2_cache_stats_breakdown[CONST_ACC_R][HIT] = 104
	L2_cache_stats_breakdown[CONST_ACC_R][HIT_RESERVED] = 12
	L2_cache_stats_breakdown[CONST_ACC_R][MISS] = 4
	L2_cache_stats_breakdown[CONST_ACC_R][RESERVATION_FAIL] = 681
	L2_cache_stats_breakdown[GLOBAL_ACC_W][HIT] = 4940
	L2_cache_stats_breakdown[GLOBAL_ACC_W][HIT_RESERVED] = 1204
	L2_cache_stats_breakdown[GLOBAL_ACC_W][MISS] = 2048
	L2_cache_stats_breakdown[GLOBAL_ACC_W][RESERVATION_FAIL] = 225
	L2_cache_stats_breakdown[LOCAL_ACC_W][HIT] = 7582
	L2_cache_stats_breakdown[LOCAL_ACC_W][MISS] = 2911
	L2_cache_stats_breakdown[LOCAL_ACC_W][RESERVATION_FAIL] = 1076
	L2_cache_stats_breakdown[L1_WRBK_ACC][HIT] = 5306
	L2_cache_stats_breakdown[L1_WRBK_ACC][MISS] = 535
	L2_cache_stats_breakdown[INST_ACC_R][HIT] = 13583
	L2_cache_stats_breakdown[INST_ACC_R][HIT_RESERVED] = 145
	L2_cache_stats_breakdown[INST_ACC_R][MISS] = 50
	L2_cache_stats_breakdown[INST_ACC_R][RESERVATION_FAIL] = 5382
L2_cache_data_port_util = 0.120
L2_cache_fill_port_util = 0.029

icnt_total_pkts_mem_to_simt=146055
icnt_total_pkts_simt_to_mem=131431
LD_mem_lat_dist  0 0 0 0 0 0 0 0 0 0 0 0 0 0 0 0 0 0 0 0 0 0 0 0 0 0 0
ST_mem_lat_dist  0 0 0 0 0 0 0 0 0 0 0 0 0 0 0 0 0 0 0 0 0 0 0 0 0 0 0
----------------------------Interconnect-DETAILS--------------------------------
Class 0:
Packet latency average = 18.589
	minimum = 6
	maximum = 944
Network latency average = 14.4623
	minimum = 6
	maximum = 928
Slowest packet = 1603
Flit latency average = 12.6954
	minimum = 6
	maximum = 924
Slowest flit = 5966
Fragmentation average = 0.0869132
	minimum = 0
	maximum = 649
Injected packet rate average = 0.024884
	minimum = 0.0180961 (at node 12)
	maximum = 0.0391861 (at node 24)
Accepted packet rate average = 0.024884
	minimum = 0.0160432 (at node 12)
	maximum = 0.0439952 (at node 24)
Injected flit rate average = 0.0732583
	minimum = 0.0464663 (at node 12)
	maximum = 0.137764 (at node 24)
Accepted flit rate average= 0.0732583
	minimum = 0.0506672 (at node 4)
	maximum = 0.108615 (at node 33)
Injected packet length average = 2.94399
Accepted packet length average = 2.94399
Total in-flight flits = 0 (0 measured)
====== Overall Traffic Statistics ======
====== Traffic class 0 ======
Packet latency average = 18.589 (1 samples)
	minimum = 6 (1 samples)
	maximum = 944 (1 samples)
Network latency average = 14.4623 (1 samples)
	minimum = 6 (1 samples)
	maximum = 928 (1 samples)
Flit latency average = 12.6954 (1 samples)
	minimum = 6 (1 samples)
	maximum = 924 (1 samples)
Fragmentation average = 0.0869132 (1 samples)
	minimum = 0 (1 samples)
	maximum = 649 (1 samples)
Injected packet rate average = 0.024884 (1 samples)
	minimum = 0.0180961 (1 samples)
	maximum = 0.0391861 (1 samples)
Accepted packet rate average = 0.024884 (1 samples)
	minimum = 0.0160432 (1 samples)
	maximum = 0.0439952 (1 samples)
Injected flit rate average = 0.0732583 (1 samples)
	minimum = 0.0464663 (1 samples)
	maximum = 0.137764 (1 samples)
Accepted flit rate average = 0.0732583 (1 samples)
	minimum = 0.0506672 (1 samples)
	maximum = 0.108615 (1 samples)
Injected packet size average = 2.94399 (1 samples)
Accepted packet size average = 2.94399 (1 samples)
Hops average = 1 (1 samples)
----------------------------END-of-Interconnect-DETAILS-------------------------


gpgpu_simulation_time = 0 days, 0 hrs, 2 min, 19 sec (139 sec)
gpgpu_simulation_rate = 337171 (inst/sec)
gpgpu_simulation_rate = 756 (cycle/sec)
GPGPU-Sim: synchronize waiting for inactive GPU simulation
GPGPU-Sim API: Stream Manager State
GPGPU-Sim: detected inactive GPU simulation thread

checksum=75ef40cb5b8e
Kernel Time: 137922.609375 
