

        *** GPGPU-Sim Simulator Version 3.2.2  [build 0] ***


GPGPU-Sim PTX: simulation mode 0 (can change with PTX_SIM_MODE_FUNC environment variable:
               1=functional simulation only, 0=detailed performance simulator)
GPGPU-Sim: Configuration options:

-network_mode                           1 # Interconnection network mode
-inter_config_file   config_fermi_islip.icnt # Interconnection network config file
-gpgpu_ptx_use_cuobjdump                    1 # Use cuobjdump to extract ptx and sass from binaries
-gpgpu_experimental_lib_support                    0 # Try to extract code from cuda libraries [Broken because of unknown cudaGetExportTable]
-gpgpu_ptx_convert_to_ptxplus                    0 # Convert SASS (native ISA) to ptxplus and run ptxplus
-gpgpu_ptx_force_max_capability                   20 # Force maximum compute capability
-gpgpu_ptx_inst_debug_to_file                    0 # Dump executed instructions' debug information to file
-gpgpu_ptx_inst_debug_file       inst_debug.txt # Executed instructions' debug output file
-gpgpu_ptx_inst_debug_thread_uid                    1 # Thread UID for executed instructions' debug output
-gpgpu_simd_model                       1 # 1 = post-dominator
-gpgpu_shader_core_pipeline              1536:32 # shader core pipeline config, i.e., {<nthread>:<warpsize>}
-gpgpu_tex_cache:l1  4:128:24,L:R:m:N:L,F:128:4,128:2 # per-shader L1 texture cache  (READ-ONLY) config  {<nsets>:<bsize>:<assoc>,<rep>:<wr>:<alloc>:<wr_alloc>,<mshr>:<N>:<merge>,<mq>:<rf>}
-gpgpu_const_cache:l1 64:64:2,L:R:f:N:L,A:2:32,4 # per-shader L1 constant memory cache  (READ-ONLY) config  {<nsets>:<bsize>:<assoc>,<rep>:<wr>:<alloc>:<wr_alloc>,<mshr>:<N>:<merge>,<mq>} 
-gpgpu_cache:il1     4:128:4,L:R:f:N:L,A:2:32,4 # shader L1 instruction cache config  {<nsets>:<bsize>:<assoc>,<rep>:<wr>:<alloc>:<wr_alloc>,<mshr>:<N>:<merge>,<mq>} 
-gpgpu_cache:dl1     32:128:4,L:L:m:N:H,A:32:8,8 # per-shader L1 data cache config  {<nsets>:<bsize>:<assoc>,<rep>:<wr>:<alloc>:<wr_alloc>,<mshr>:<N>:<merge>,<mq> | none}
-gpgpu_cache:dl1PrefL1                 none # per-shader L1 data cache config  {<nsets>:<bsize>:<assoc>,<rep>:<wr>:<alloc>:<wr_alloc>,<mshr>:<N>:<merge>,<mq> | none}
-gpgpu_cache:dl1PreShared                 none # per-shader L1 data cache config  {<nsets>:<bsize>:<assoc>,<rep>:<wr>:<alloc>:<wr_alloc>,<mshr>:<N>:<merge>,<mq> | none}
-gmem_skip_L1D                          0 # global memory access skip L1D cache (implements -Xptxas -dlcm=cg, default=no skip)
-gpgpu_perfect_mem                      0 # enable perfect memory mode (no cache miss)
-n_regfile_gating_group                    4 # group of lanes that should be read/written together)
-gpgpu_clock_gated_reg_file                    0 # enable clock gated reg file for power calculations
-gpgpu_clock_gated_lanes                    0 # enable clock gated lanes for power calculations
-gpgpu_shader_registers                32768 # Number of registers per shader core. Limits number of concurrent CTAs. (default 8192)
-gpgpu_shader_cta                       8 # Maximum number of concurrent CTAs in shader (default 8)
-gpgpu_num_cta_barriers                   16 # Maximum number of named barriers per CTA (default 16)
-gpgpu_n_clusters                      15 # number of processing clusters
-gpgpu_n_cores_per_cluster                    1 # number of simd cores per cluster
-gpgpu_n_cluster_ejection_buffer_size                    8 # number of packets in ejection buffer
-gpgpu_n_ldst_response_buffer_size                    2 # number of response packets in ld/st unit ejection buffer
-gpgpu_shmem_size                   16384 # Size of shared memory per shader core (default 16kB)
-gpgpu_shmem_size                   49152 # Size of shared memory per shader core (default 16kB)
-gpgpu_shmem_size_PrefL1                16384 # Size of shared memory per shader core (default 16kB)
-gpgpu_shmem_size_PrefShared                16384 # Size of shared memory per shader core (default 16kB)
-gpgpu_shmem_num_banks                   32 # Number of banks in the shared memory in each shader core (default 16)
-gpgpu_shmem_limited_broadcast                    0 # Limit shared memory to do one broadcast per cycle (default on)
-gpgpu_shmem_warp_parts                    1 # Number of portions a warp is divided into for shared memory bank conflict check 
-gpgpu_warpdistro_shader                   -1 # Specify which shader core to collect the warp size distribution from
-gpgpu_warp_issue_shader                    0 # Specify which shader core to collect the warp issue distribution from
-gpgpu_local_mem_map                    1 # Mapping from local memory space address to simulated GPU physical address space (default = enabled)
-gpgpu_num_reg_banks                   16 # Number of register banks (default = 8)
-gpgpu_reg_bank_use_warp_id                    0 # Use warp ID in mapping registers to banks (default = off)
-gpgpu_operand_collector_num_units_sp                    6 # number of collector units (default = 4)
-gpgpu_operand_collector_num_units_sfu                    8 # number of collector units (default = 4)
-gpgpu_operand_collector_num_units_mem                    2 # number of collector units (default = 2)
-gpgpu_operand_collector_num_units_gen                    0 # number of collector units (default = 0)
-gpgpu_operand_collector_num_in_ports_sp                    2 # number of collector unit in ports (default = 1)
-gpgpu_operand_collector_num_in_ports_sfu                    1 # number of collector unit in ports (default = 1)
-gpgpu_operand_collector_num_in_ports_mem                    1 # number of collector unit in ports (default = 1)
-gpgpu_operand_collector_num_in_ports_gen                    0 # number of collector unit in ports (default = 0)
-gpgpu_operand_collector_num_out_ports_sp                    2 # number of collector unit in ports (default = 1)
-gpgpu_operand_collector_num_out_ports_sfu                    1 # number of collector unit in ports (default = 1)
-gpgpu_operand_collector_num_out_ports_mem                    1 # number of collector unit in ports (default = 1)
-gpgpu_operand_collector_num_out_ports_gen                    0 # number of collector unit in ports (default = 0)
-gpgpu_coalesce_arch                   13 # Coalescing arch (default = 13, anything else is off for now)
-gpgpu_num_sched_per_core                    2 # Number of warp schedulers per core
-gpgpu_max_insn_issue_per_warp                    1 # Max number of instructions that can be issued per warp in one cycle by scheduler
-gpgpu_simt_core_sim_order                    1 # Select the simulation order of cores in a cluster (0=Fix, 1=Round-Robin)
-gpgpu_pipeline_widths        2,1,1,2,1,1,2 # Pipeline widths ID_OC_SP,ID_OC_SFU,ID_OC_MEM,OC_EX_SP,OC_EX_SFU,OC_EX_MEM,EX_WB
-gpgpu_num_sp_units                     2 # Number of SP units (default=1)
-gpgpu_num_sfu_units                    1 # Number of SF units (default=1)
-gpgpu_num_mem_units                    1 # Number if ldst units (default=1) WARNING: not hooked up to anything
-gpgpu_scheduler                      gto # Scheduler configuration: < lrr | gto | two_level_active > If two_level_active:<num_active_warps>:<inner_prioritization>:<outer_prioritization>For complete list of prioritization values see shader.h enum scheduler_prioritization_typeDefault: gto
-gpgpu_dram_scheduler                    1 # 0 = fifo, 1 = FR-FCFS (defaul)
-gpgpu_dram_partition_queues              8:8:8:8 # i2$:$2d:d2$:$2i
-l2_ideal                               0 # Use a ideal L2 cache that always hit
-gpgpu_cache:dl2     64:128:8,L:B:m:W:L,A:32:4,4:0,32 # unified banked L2 data cache config  {<nsets>:<bsize>:<assoc>,<rep>:<wr>:<alloc>:<wr_alloc>,<mshr>:<N>:<merge>,<mq>}
-gpgpu_cache:dl2_texture_only                    0 # L2 cache used for texture only
-gpgpu_n_mem                            6 # number of memory modules (e.g. memory controllers) in gpu
-gpgpu_n_sub_partition_per_mchannel                    2 # number of memory subpartition in each memory module
-gpgpu_n_mem_per_ctrlr                    2 # number of memory chips per memory controller
-gpgpu_memlatency_stat                   14 # track and display latency statistics 0x2 enables MC, 0x4 enables queue logs
-gpgpu_frfcfs_dram_sched_queue_size                   16 # 0 = unlimited (default); # entries per chip
-gpgpu_dram_return_queue_size                  116 # 0 = unlimited (default); # entries per chip
-gpgpu_dram_buswidth                    4 # default = 4 bytes (8 bytes per cycle at DDR)
-gpgpu_dram_burst_length                    8 # Burst length of each DRAM request (default = 4 data bus cycle)
-dram_data_command_freq_ratio                    4 # Frequency ratio between DRAM data bus and command bus (default = 2 times, i.e. DDR)
-gpgpu_dram_timing_opt nbk=16:CCD=2:RRD=6:RCD=12:RAS=28:RP=12:RC=40: CL=12:WL=4:CDLR=5:WR=12:nbkgrp=4:CCDL=3:RTPL=2 # DRAM timing parameters = {nbk:tCCD:tRRD:tRCD:tRAS:tRP:tRC:CL:WL:tCDLR:tWR:nbkgrp:tCCDL:tRTPL}
-rop_latency                          120 # ROP queue latency (default 85)
-dram_latency                         100 # DRAM latency (default 30)
-gpgpu_mem_addr_mapping dramid@8;00000000.00000000.00000000.00000000.0000RRRR.RRRRRRRR.BBBCCCCB.CCSSSSSS # mapping memory address to dram model {dramid@<start bit>;<memory address map>}
-gpgpu_mem_addr_test                    0 # run sweep test to check address mapping for aliased address
-gpgpu_mem_address_mask                    1 # 0 = old addressing mask, 1 = new addressing mask, 2 = new add. mask + flipped bank sel and chip sel bits
-gpuwattch_xml_file  gpuwattch_gtx480.xml # GPUWattch XML file
-power_simulation_enabled                    1 # Turn on power simulator (1=On, 0=Off)
-power_per_cycle_dump                    0 # Dump detailed power output each cycle
-power_trace_enabled                    0 # produce a file for the power trace (1=On, 0=Off)
-power_trace_zlevel                     6 # Compression level of the power trace output log (0=no comp, 9=highest)
-steady_power_levels_enabled                    0 # produce a file for the steady power levels (1=On, 0=Off)
-steady_state_definition                  8:4 # allowed deviation:number of samples
-gpgpu_max_cycle                        0 # terminates gpu simulation early (0 = no limit)
-gpgpu_max_insn                         0 # terminates gpu simulation early (0 = no limit)
-gpgpu_max_cta                          0 # terminates gpu simulation early (0 = no limit)
-gpgpu_runtime_stat                   500 # display runtime statistics such as dram utilization {<freq>:<flag>}
-liveness_message_freq                    1 # Minimum number of seconds between simulation liveness messages (0 = always print)
-gpgpu_flush_l1_cache                    0 # Flush L1 cache at the end of each kernel call
-gpgpu_flush_l2_cache                    0 # Flush L2 cache at the end of each kernel call
-gpgpu_deadlock_detect                    1 # Stop the simulation at deadlock (1=on (default), 0=off)
-gpgpu_ptx_instruction_classification                    0 # if enabled will classify ptx instruction types per kernel (Max 255 kernels now)
-gpgpu_ptx_sim_mode                     0 # Select between Performance (default) or Functional simulation (1)
-gpgpu_clock_domains 700.0:700.0:700.0:924.0 # Clock Domain Frequencies in MhZ {<Core Clock>:<ICNT Clock>:<L2 Clock>:<DRAM Clock>}
-gpgpu_max_concurrent_kernel                    8 # maximum kernels that can run concurrently on GPU
-gpgpu_cflog_interval                    0 # Interval between each snapshot in control flow logger
-visualizer_enabled                     0 # Turn on visualizer output (1=On, 0=Off)
-visualizer_outputfile                 NULL # Specifies the output log file for visualizer
-visualizer_zlevel                      6 # Compression level of the visualizer output log (0=no comp, 9=highest)
-trace_enabled                          0 # Turn on traces
-trace_components                    none # comma seperated list of traces to enable. Complete list found in trace_streams.tup. Default none
-trace_sampling_core                    0 # The core which is printed using CORE_DPRINTF. Default 0
-trace_sampling_memory_partition                   -1 # The memory partition which is printed using MEMPART_DPRINTF. Default -1 (i.e. all)
-enable_ptx_file_line_stats                    1 # Turn on PTX source line statistic profiling. (1 = On)
-ptx_line_stats_filename gpgpu_inst_stats.txt # Output file for PTX source line statistics.
-save_embedded_ptx                      0 # saves ptx files embedded in binary as <n>.ptx
-keep                                   0 # keep intermediate files created by GPGPU-Sim when interfacing with external programs
-gpgpu_ptx_save_converted_ptxplus                    0 # Saved converted ptxplus to a file
-ptx_opcode_latency_int         4,13,4,5,145 # Opcode latencies for integers <ADD,MAX,MUL,MAD,DIV>Default 1,1,19,25,145
-ptx_opcode_latency_fp          4,13,4,5,39 # Opcode latencies for single precision floating points <ADD,MAX,MUL,MAD,DIV>Default 1,1,1,1,30
-ptx_opcode_latency_dp         8,19,8,8,330 # Opcode latencies for double precision floating points <ADD,MAX,MUL,MAD,DIV>Default 8,8,8,8,335
-ptx_opcode_initiation_int            1,2,2,1,8 # Opcode initiation intervals for integers <ADD,MAX,MUL,MAD,DIV>Default 1,1,4,4,32
-ptx_opcode_initiation_fp            1,2,1,1,4 # Opcode initiation intervals for single precision floating points <ADD,MAX,MUL,MAD,DIV>Default 1,1,1,1,5
-ptx_opcode_initiation_dp         8,16,8,8,130 # Opcode initiation intervals for double precision floating points <ADD,MAX,MUL,MAD,DIV>Default 8,8,8,8,130
DRAM Timing Options:
nbk                                    16 # number of banks
CCD                                     2 # column to column delay
RRD                                     6 # minimal delay between activation of rows in different banks
RCD                                    12 # row to column delay
RAS                                    28 # time needed to activate row
RP                                     12 # time needed to precharge (deactivate) row
RC                                     40 # row cycle time
CDLR                                    5 # switching from write to read (changes tWTR)
WR                                     12 # last data-in to row precharge
CL                                     12 # CAS latency
WL                                      4 # Write latency
nbkgrp                                  4 # number of bank groups
CCDL                                    3 # column to column delay between accesses to different bank groups
RTPL                                    2 # read to precharge delay between accesses to different bank groups
Total number of memory sub partition = 12
addr_dec_mask[CHIP]  = 0000000000000000 	high:64 low:0
addr_dec_mask[BK]    = 000000000000e100 	high:16 low:8
addr_dec_mask[ROW]   = 000000000fff0000 	high:28 low:16
addr_dec_mask[COL]   = 0000000000001eff 	high:13 low:0
addr_dec_mask[BURST] = 000000000000003f 	high:6 low:0
sub_partition_id_mask = 0000000000000100
GPGPU-Sim uArch: clock freqs: 700000000.000000:700000000.000000:700000000.000000:924000000.000000
GPGPU-Sim uArch: clock periods: 0.00000000142857142857:0.00000000142857142857:0.00000000142857142857:0.00000000108225108225
*** Initializing Memory Statistics ***
GPGPU-Sim uArch: interconnect node map (shaderID+MemID to icntID)
GPGPU-Sim uArch: Memory nodes ID start from index: 15
GPGPU-Sim uArch:    0   1   2   3   4
GPGPU-Sim uArch:    5   6   7   8   9
GPGPU-Sim uArch:   10  11  12  13  14
GPGPU-Sim uArch:   15  16  17  18  19
GPGPU-Sim uArch:   20  21  22  23  24
GPGPU-Sim uArch:   25  26
GPGPU-Sim uArch: interconnect node reverse map (icntID to shaderID+MemID)
GPGPU-Sim uArch: Memory nodes start from ID: 15
GPGPU-Sim uArch:    0   1   2   3   4
GPGPU-Sim uArch:    5   6   7   8   9
GPGPU-Sim uArch:   10  11  12  13  14
GPGPU-Sim uArch:   15  16  17  18  19
GPGPU-Sim uArch:   20  21  22  23  24
GPGPU-Sim uArch:   25  26
ed8787eca822cb5b511f1565e2dba1a3  /root/ispass2009-benchmarks/bin/release/LIB
GPGPU-Sim uArch: performance model initialization complete.
GPGPU-Sim PTX: __cudaRegisterFatBinary, fat_cubin_handle = 1, filename=libor.cu
self exe links to: /root/ispass2009-benchmarks/bin/release/LIB
Running md5sum using "md5sum /root/ispass2009-benchmarks/bin/release/LIB "
Running cuobjdump using "$CUDA_INSTALL_PATH/bin/cuobjdump -ptx -elf -sass /root/ispass2009-benchmarks/bin/release/LIB > _cuobjdump_complete_output_1Xz4WA"
Parsing file _cuobjdump_complete_output_1Xz4WA
######### cuobjdump parser ########
## Adding new section PTX
Adding ptx filename: _cuobjdump_1.ptx
Adding arch: sm_30
Adding identifier: libor.cu
## Adding new section ELF
Adding arch: sm_30
Adding identifier: libor.cu
## Adding new section ELF
Adding arch: sm_20
Adding identifier: libor.cu
## Adding new section PTX
Adding ptx filename: _cuobjdump_2.ptx
Adding arch: sm_20
Adding identifier: libor.cu
## Adding new section PTX
Adding ptx filename: _cuobjdump_3.ptx
Adding arch: sm_10
Adding identifier: libor.cu
## Adding new section ELF
Adding arch: sm_10
Adding identifier: libor.cu
Done parsing!!!
GPGPU-Sim PTX: __cudaRegisterFunction _Z29Pathcalc_Portfolio_KernelGPU2Pf : hostFun 0x0x403cd0, fat_cubin_handle = 1
GPGPU-Sim PTX: allocating constant region for "N" from 0x100 to 0x104 (global memory space) 1
GPGPU-Sim PTX: allocating constant region for "Nmat" from 0x104 to 0x108 (global memory space) 2
GPGPU-Sim PTX: allocating constant region for "Nopt" from 0x108 to 0x10c (global memory space) 3
GPGPU-Sim PTX: allocating constant region for "maturities" from 0x180 to 0x1bc (global memory space) 4
GPGPU-Sim PTX: allocating constant region for "delta" from 0x1bc to 0x1c0 (global memory space) 5
GPGPU-Sim PTX: allocating constant region for "swaprates" from 0x200 to 0x23c (global memory space) 6
GPGPU-Sim PTX: allocating constant region for "lambda" from 0x280 to 0x3c0 (global memory space) 7
GPGPU-Sim PTX: allocating stack frame region for .param "_Z9path_calcPfS__param_0" from 0x0 to 0x8
GPGPU-Sim PTX: allocating stack frame region for .param "_Z9path_calcPfS__param_1" from 0x8 to 0x10
GPGPU-Sim PTX: instruction assembly for function '_Z9path_calcPfS_'...   done.
GPGPU-Sim PTX: finding reconvergence points for '_Z9path_calcPfS_'...
GPGPU-Sim PTX: Finding dominators for '_Z9path_calcPfS_'...
GPGPU-Sim PTX: Finding immediate dominators for '_Z9path_calcPfS_'...
GPGPU-Sim PTX: Finding postdominators for '_Z9path_calcPfS_'...
GPGPU-Sim PTX: Finding immediate postdominators for '_Z9path_calcPfS_'...
GPGPU-Sim PTX: pre-decoding instructions for '_Z9path_calcPfS_'...
GPGPU-Sim PTX: reconvergence points for _Z9path_calcPfS_...
GPGPU-Sim PTX:  1 (potential) branch divergence @  PC=0x010 (_1.ptx:39) @%p1 bra BB0_6;
GPGPU-Sim PTX:    immediate post dominator      @  PC=0x1b0 (_1.ptx:123) ret;
GPGPU-Sim PTX:  2 (potential) branch divergence @  PC=0x078 (_1.ptx:61) @%p2 bra BB0_5;
GPGPU-Sim PTX:    immediate post dominator      @  PC=0x190 (_1.ptx:115) ld.const.u32 %r15, [Nmat];
GPGPU-Sim PTX:  3 (potential) branch divergence @  PC=0x188 (_1.ptx:111) @%p3 bra BB0_7;
GPGPU-Sim PTX:    immediate post dominator      @  PC=0x190 (_1.ptx:115) ld.const.u32 %r15, [Nmat];
GPGPU-Sim PTX:  4 (potential) branch divergence @  PC=0x1a8 (_1.ptx:119) @%p4 bra BB0_2;
GPGPU-Sim PTX:    immediate post dominator      @  PC=0x1b0 (_1.ptx:123) ret;
GPGPU-Sim PTX:  5 (potential) branch divergence @  PC=0x1c8 (_1.ptx:128) bra.uni BB0_4;
GPGPU-Sim PTX:    immediate post dominator      @  PC=0x0a0 (_1.ptx:70) mov.f32 %f3, %f21;
GPGPU-Sim PTX: ... end of reconvergence points for _Z9path_calcPfS_
GPGPU-Sim PTX: ... done pre-decoding instructions for '_Z9path_calcPfS_'.
GPGPU-Sim PTX: allocating stack frame region for .param "_Z12path_calc_b1PfS_S__param_0" from 0x0 to 0x8
GPGPU-Sim PTX: allocating stack frame region for .param "_Z12path_calc_b1PfS_S__param_1" from 0x8 to 0x10
GPGPU-Sim PTX: allocating stack frame region for .param "_Z12path_calc_b1PfS_S__param_2" from 0x10 to 0x18
GPGPU-Sim PTX: instruction assembly for function '_Z12path_calc_b1PfS_S_'...   done.
GPGPU-Sim PTX: finding reconvergence points for '_Z12path_calc_b1PfS_S_'...
GPGPU-Sim PTX: Finding dominators for '_Z12path_calc_b1PfS_S_'...
GPGPU-Sim PTX: Finding immediate dominators for '_Z12path_calc_b1PfS_S_'...
GPGPU-Sim PTX: Finding postdominators for '_Z12path_calc_b1PfS_S_'...
GPGPU-Sim PTX: Finding immediate postdominators for '_Z12path_calc_b1PfS_S_'...
GPGPU-Sim PTX: pre-decoding instructions for '_Z12path_calc_b1PfS_S_'...
GPGPU-Sim PTX: reconvergence points for _Z12path_calc_b1PfS_S_...
GPGPU-Sim PTX:  1 (potential) branch divergence @  PC=0x1e0 (_1.ptx:147) @%p1 bra BB1_1;
GPGPU-Sim PTX:    immediate post dominator      @  PC=0x250 (_1.ptx:174) ld.const.u32 %r17, [Nmat];
GPGPU-Sim PTX:  2 (potential) branch divergence @  PC=0x1e8 (_1.ptx:148) bra.uni BB1_3;
GPGPU-Sim PTX:    immediate post dominator      @  PC=0x250 (_1.ptx:174) ld.const.u32 %r17, [Nmat];
GPGPU-Sim PTX:  3 (potential) branch divergence @  PC=0x248 (_1.ptx:170) @%p2 bra BB1_2;
GPGPU-Sim PTX:    immediate post dominator      @  PC=0x250 (_1.ptx:174) ld.const.u32 %r17, [Nmat];
GPGPU-Sim PTX:  4 (potential) branch divergence @  PC=0x260 (_1.ptx:176) @%p3 bra BB1_9;
GPGPU-Sim PTX:    immediate post dominator      @  PC=0x428 (_1.ptx:266) ret;
GPGPU-Sim PTX:  5 (potential) branch divergence @  PC=0x2c0 (_1.ptx:196) @%p4 bra BB1_6;
GPGPU-Sim PTX:    immediate post dominator      @  PC=0x408 (_1.ptx:258) ld.const.u32 %r26, [Nmat];
GPGPU-Sim PTX:  6 (potential) branch divergence @  PC=0x2c8 (_1.ptx:197) bra.uni BB1_8;
GPGPU-Sim PTX:    immediate post dominator      @  PC=0x408 (_1.ptx:258) ld.const.u32 %r26, [Nmat];
GPGPU-Sim PTX:  7 (potential) branch divergence @  PC=0x400 (_1.ptx:254) @%p5 bra BB1_10;
GPGPU-Sim PTX:    immediate post dominator      @  PC=0x408 (_1.ptx:258) ld.const.u32 %r26, [Nmat];
GPGPU-Sim PTX:  8 (potential) branch divergence @  PC=0x420 (_1.ptx:262) @%p6 bra BB1_5;
GPGPU-Sim PTX:    immediate post dominator      @  PC=0x428 (_1.ptx:266) ret;
GPGPU-Sim PTX:  9 (potential) branch divergence @  PC=0x440 (_1.ptx:271) bra.uni BB1_7;
GPGPU-Sim PTX:    immediate post dominator      @  PC=0x2f0 (_1.ptx:207) mov.f32 %f3, %f22;
GPGPU-Sim PTX: ... end of reconvergence points for _Z12path_calc_b1PfS_S_
GPGPU-Sim PTX: ... done pre-decoding instructions for '_Z12path_calc_b1PfS_S_'.
GPGPU-Sim PTX: allocating stack frame region for .param "_Z12path_calc_b2PfS_S__param_0" from 0x0 to 0x8
GPGPU-Sim PTX: allocating stack frame region for .param "_Z12path_calc_b2PfS_S__param_1" from 0x8 to 0x10
GPGPU-Sim PTX: allocating stack frame region for .param "_Z12path_calc_b2PfS_S__param_2" from 0x10 to 0x18
GPGPU-Sim PTX: instruction assembly for function '_Z12path_calc_b2PfS_S_'...   done.
GPGPU-Sim PTX: finding reconvergence points for '_Z12path_calc_b2PfS_S_'...
GPGPU-Sim PTX: Finding dominators for '_Z12path_calc_b2PfS_S_'...
GPGPU-Sim PTX: Finding immediate dominators for '_Z12path_calc_b2PfS_S_'...
GPGPU-Sim PTX: Finding postdominators for '_Z12path_calc_b2PfS_S_'...
GPGPU-Sim PTX: Finding immediate postdominators for '_Z12path_calc_b2PfS_S_'...
GPGPU-Sim PTX: pre-decoding instructions for '_Z12path_calc_b2PfS_S_'...
GPGPU-Sim PTX: reconvergence points for _Z12path_calc_b2PfS_S_...
GPGPU-Sim PTX:  1 (potential) branch divergence @  PC=0x460 (_1.ptx:291) @%p1 bra BB2_6;
GPGPU-Sim PTX:    immediate post dominator      @  PC=0x608 (_1.ptx:365) ret;
GPGPU-Sim PTX:  2 (potential) branch divergence @  PC=0x4d0 (_1.ptx:310) @%p2 bra BB2_5;
GPGPU-Sim PTX:    immediate post dominator      @  PC=0x5e8 (_1.ptx:357) add.s32 %r25, %r25, -1;
GPGPU-Sim PTX:  3 (potential) branch divergence @  PC=0x5e0 (_1.ptx:354) @%p3 bra BB2_7;
GPGPU-Sim PTX:    immediate post dominator      @  PC=0x5e8 (_1.ptx:357) add.s32 %r25, %r25, -1;
GPGPU-Sim PTX:  4 (potential) branch divergence @  PC=0x600 (_1.ptx:361) @%p4 bra BB2_2;
GPGPU-Sim PTX:    immediate post dominator      @  PC=0x608 (_1.ptx:365) ret;
GPGPU-Sim PTX:  5 (potential) branch divergence @  PC=0x640 (_1.ptx:374) bra.uni BB2_4;
GPGPU-Sim PTX:    immediate post dominator      @  PC=0x500 (_1.ptx:319) mov.u32 %r6, %r28;
GPGPU-Sim PTX: ... end of reconvergence points for _Z12path_calc_b2PfS_S_
GPGPU-Sim PTX: ... done pre-decoding instructions for '_Z12path_calc_b2PfS_S_'.
GPGPU-Sim PTX: allocating stack frame region for .param "func_retval0" from 0x0 to 0x4
GPGPU-Sim PTX: allocating stack frame region for .param "_Z11portfolio_bPfS__param_0" from 0x4 to 0xc
GPGPU-Sim PTX: allocating stack frame region for .param "_Z11portfolio_bPfS__param_1" from 0xc to 0x14
GPGPU-Sim PTX: allocating stack frame region for .local "__local_depot3" from 0x80 to 0x300
GPGPU-Sim PTX: instruction assembly for function '_Z11portfolio_bPfS_'...   done.
GPGPU-Sim PTX: finding reconvergence points for '_Z11portfolio_bPfS_'...
GPGPU-Sim PTX: Finding dominators for '_Z11portfolio_bPfS_'...
GPGPU-Sim PTX: Finding immediate dominators for '_Z11portfolio_bPfS_'...
GPGPU-Sim PTX: Finding postdominators for '_Z11portfolio_bPfS_'...
GPGPU-Sim PTX: Finding immediate postdominators for '_Z11portfolio_bPfS_'...
GPGPU-Sim PTX: pre-decoding instructions for '_Z11portfolio_bPfS_'...
GPGPU-Sim PTX: reconvergence points for _Z11portfolio_bPfS_...
GPGPU-Sim PTX:  1 (potential) branch divergence @  PC=0x678 (_1.ptx:398) @%p3 bra BB3_6;
GPGPU-Sim PTX:    immediate post dominator      @  PC=0x7a8 (_1.ptx:460) ld.const.u32 %r8, [Nopt];
GPGPU-Sim PTX:  2 (potential) branch divergence @  PC=0x730 (_1.ptx:432) @%p4 bra BB3_2;
GPGPU-Sim PTX:    immediate post dominator      @  PC=0x738 (_1.ptx:435) @!%p1 bra BB3_6;
GPGPU-Sim PTX:  3 (potential) branch divergence @  PC=0x738 (_1.ptx:435) @!%p1 bra BB3_6;
GPGPU-Sim PTX:    immediate post dominator      @  PC=0x7a8 (_1.ptx:460) ld.const.u32 %r8, [Nopt];
GPGPU-Sim PTX:  4 (potential) branch divergence @  PC=0x7a0 (_1.ptx:456) @%p5 bra BB3_5;
GPGPU-Sim PTX:    immediate post dominator      @  PC=0x7a8 (_1.ptx:460) ld.const.u32 %r8, [Nopt];
GPGPU-Sim PTX:  5 (potential) branch divergence @  PC=0x7b8 (_1.ptx:462) @%p6 bra BB3_8;
GPGPU-Sim PTX:    immediate post dominator      @  PC=0x8f8 (_1.ptx:522) add.s32 %r45, %r76, -1;
GPGPU-Sim PTX:  6 (potential) branch divergence @  PC=0x7c8 (_1.ptx:465) bra.uni BB3_12;
GPGPU-Sim PTX:    immediate post dominator      @  PC=0x8f8 (_1.ptx:522) add.s32 %r45, %r76, -1;
GPGPU-Sim PTX:  7 (potential) branch divergence @  PC=0x860 (_1.ptx:492) @%p7 bra BB3_10;
GPGPU-Sim PTX:    immediate post dominator      @  PC=0x8d0 (_1.ptx:513) add.s64 %rl72, %rl72, 4;
GPGPU-Sim PTX:  8 (potential) branch divergence @  PC=0x868 (_1.ptx:493) bra.uni BB3_11;
GPGPU-Sim PTX:    immediate post dominator      @  PC=0x8d0 (_1.ptx:513) add.s64 %rl72, %rl72, 4;
GPGPU-Sim PTX:  9 (potential) branch divergence @  PC=0x8f0 (_1.ptx:519) @%p8 bra BB3_9;
GPGPU-Sim PTX:    immediate post dominator      @  PC=0x8f8 (_1.ptx:522) add.s32 %r45, %r76, -1;
GPGPU-Sim PTX: 10 (potential) branch divergence @  PC=0x908 (_1.ptx:524) @%p9 bra BB3_13;
GPGPU-Sim PTX:    immediate post dominator      @  PC=0xae8 (_1.ptx:610) mov.u32 %r84, %r85;
GPGPU-Sim PTX: 11 (potential) branch divergence @  PC=0x910 (_1.ptx:525) bra.uni BB3_18;
GPGPU-Sim PTX:    immediate post dominator      @  PC=0xae8 (_1.ptx:610) mov.u32 %r84, %r85;
GPGPU-Sim PTX: 12 (potential) branch divergence @  PC=0xa30 (_1.ptx:576) @%p10 bra BB3_16;
GPGPU-Sim PTX:    immediate post dominator      @  PC=0xaa8 (_1.ptx:598) ld.const.u32 %r14, [Nmat];
GPGPU-Sim PTX: 13 (potential) branch divergence @  PC=0xad8 (_1.ptx:605) @%p11 bra BB3_14;
GPGPU-Sim PTX:    immediate post dominator      @  PC=0xae0 (_1.ptx:607) mov.u32 %r85, %r14;
GPGPU-Sim PTX: 14 (potential) branch divergence @  PC=0xaf8 (_1.ptx:613) @%p2 bra BB3_20;
GPGPU-Sim PTX:    immediate post dominator      @  PC=0xb88 (_1.ptx:645) mul.f32 %f18, %f64, %f63;
GPGPU-Sim PTX: 15 (potential) branch divergence @  PC=0xb08 (_1.ptx:616) bra.uni BB3_22;
GPGPU-Sim PTX:    immediate post dominator      @  PC=0xb88 (_1.ptx:645) mul.f32 %f18, %f64, %f63;
GPGPU-Sim PTX: 16 (potential) branch divergence @  PC=0xb80 (_1.ptx:641) @%p12 bra BB3_21;
GPGPU-Sim PTX:    immediate post dominator      @  PC=0xb88 (_1.ptx:645) mul.f32 %f18, %f64, %f63;
GPGPU-Sim PTX: 17 (potential) branch divergence @  PC=0xb90 (_1.ptx:646) @%p2 bra BB3_23;
GPGPU-Sim PTX:    immediate post dominator      @  PC=0xc48 (_1.ptx:684) mov.u32 %r83, %r84;
GPGPU-Sim PTX: 18 (potential) branch divergence @  PC=0xb98 (_1.ptx:647) bra.uni BB3_25;
GPGPU-Sim PTX:    immediate post dominator      @  PC=0xc48 (_1.ptx:684) mov.u32 %r83, %r84;
GPGPU-Sim PTX: 19 (potential) branch divergence @  PC=0xc40 (_1.ptx:681) @%p13 bra BB3_24;
GPGPU-Sim PTX:    immediate post dominator      @  PC=0xc48 (_1.ptx:684) mov.u32 %r83, %r84;
GPGPU-Sim PTX: 20 (potential) branch divergence @  PC=0xc60 (_1.ptx:688) @%p14 bra BB3_27;
GPGPU-Sim PTX:    immediate post dominator      @  PC=0xcb8 (_1.ptx:709) st.param.f32[func_retval0+0], %f18;
GPGPU-Sim PTX: 21 (potential) branch divergence @  PC=0xcb0 (_1.ptx:705) @%p15 bra BB3_26;
GPGPU-Sim PTX:    immediate post dominator      @  PC=0xcb8 (_1.ptx:709) st.param.f32[func_retval0+0], %f18;
GPGPU-Sim PTX: ... end of reconvergence points for _Z11portfolio_bPfS_
GPGPU-Sim PTX: ... done pre-decoding instructions for '_Z11portfolio_bPfS_'.
GPGPU-Sim PTX: allocating stack frame region for .param "func_retval0" from 0x0 to 0x4
GPGPU-Sim PTX: allocating stack frame region for .param "_Z9portfolioPf_param_0" from 0x4 to 0xc
GPGPU-Sim PTX: allocating stack frame region for .local "__local_depot4" from 0x80 to 0x1c0
GPGPU-Sim PTX: instruction assembly for function '_Z9portfolioPf'...   done.
GPGPU-Sim PTX: finding reconvergence points for '_Z9portfolioPf'...
GPGPU-Sim PTX: Finding dominators for '_Z9portfolioPf'...
GPGPU-Sim PTX: Finding immediate dominators for '_Z9portfolioPf'...
GPGPU-Sim PTX: Finding postdominators for '_Z9portfolioPf'...
GPGPU-Sim PTX: Finding immediate postdominators for '_Z9portfolioPf'...
GPGPU-Sim PTX: pre-decoding instructions for '_Z9portfolioPf'...
GPGPU-Sim PTX: reconvergence points for _Z9portfolioPf...
GPGPU-Sim PTX:  1 (potential) branch divergence @  PC=0xce8 (_1.ptx:731) @%p1 bra BB4_3;
GPGPU-Sim PTX:    immediate post dominator      @  PC=0xdd8 (_1.ptx:777) ld.const.u32 %r5, [Nopt];
GPGPU-Sim PTX:  2 (potential) branch divergence @  PC=0xdd0 (_1.ptx:773) @%p2 bra BB4_2;
GPGPU-Sim PTX:    immediate post dominator      @  PC=0xdd8 (_1.ptx:777) ld.const.u32 %r5, [Nopt];
GPGPU-Sim PTX:  3 (potential) branch divergence @  PC=0xde8 (_1.ptx:779) @%p3 bra BB4_5;
GPGPU-Sim PTX:    immediate post dominator      @  PC=0xee0 (_1.ptx:828) setp.gt.s32 %p6, %r2, 0;
GPGPU-Sim PTX:  4 (potential) branch divergence @  PC=0xdf8 (_1.ptx:782) bra.uni BB4_9;
GPGPU-Sim PTX:    immediate post dominator      @  PC=0xee0 (_1.ptx:828) setp.gt.s32 %p6, %r2, 0;
GPGPU-Sim PTX:  5 (potential) branch divergence @  PC=0xe88 (_1.ptx:807) @%p4 bra BB4_7;
GPGPU-Sim PTX:    immediate post dominator      @  PC=0xeb8 (_1.ptx:818) add.s64 %rl29, %rl29, 4;
GPGPU-Sim PTX:  6 (potential) branch divergence @  PC=0xe90 (_1.ptx:808) bra.uni BB4_8;
GPGPU-Sim PTX:    immediate post dominator      @  PC=0xeb8 (_1.ptx:818) add.s64 %rl29, %rl29, 4;
GPGPU-Sim PTX:  7 (potential) branch divergence @  PC=0xed8 (_1.ptx:824) @%p5 bra BB4_6;
GPGPU-Sim PTX:    immediate post dominator      @  PC=0xee0 (_1.ptx:828) setp.gt.s32 %p6, %r2, 0;
GPGPU-Sim PTX:  8 (potential) branch divergence @  PC=0xee8 (_1.ptx:829) @%p6 bra BB4_11;
GPGPU-Sim PTX:    immediate post dominator      @  PC=0xf78 (_1.ptx:861) mul.f32 %f27, %f30, %f29;
GPGPU-Sim PTX:  9 (potential) branch divergence @  PC=0xef8 (_1.ptx:832) bra.uni BB4_13;
GPGPU-Sim PTX:    immediate post dominator      @  PC=0xf78 (_1.ptx:861) mul.f32 %f27, %f30, %f29;
GPGPU-Sim PTX: 10 (potential) branch divergence @  PC=0xf70 (_1.ptx:857) @%p7 bra BB4_12;
GPGPU-Sim PTX:    immediate post dominator      @  PC=0xf78 (_1.ptx:861) mul.f32 %f27, %f30, %f29;
GPGPU-Sim PTX: ... end of reconvergence points for _Z9portfolioPf
GPGPU-Sim PTX: ... done pre-decoding instructions for '_Z9portfolioPf'.
GPGPU-Sim PTX: allocating stack frame region for .local "__local_depot5" from 0x0 to 0x3840
GPGPU-Sim PTX: instruction assembly for function '_Z28Pathcalc_Portfolio_KernelGPUPfS_'...   done.
GPGPU-Sim PTX: finding reconvergence points for '_Z28Pathcalc_Portfolio_KernelGPUPfS_'...
GPGPU-Sim PTX: Finding dominators for '_Z28Pathcalc_Portfolio_KernelGPUPfS_'...
GPGPU-Sim PTX: Finding immediate dominators for '_Z28Pathcalc_Portfolio_KernelGPUPfS_'...
GPGPU-Sim PTX: Finding postdominators for '_Z28Pathcalc_Portfolio_KernelGPUPfS_'...
GPGPU-Sim PTX: Finding immediate postdominators for '_Z28Pathcalc_Portfolio_KernelGPUPfS_'...
GPGPU-Sim PTX: pre-decoding instructions for '_Z28Pathcalc_Portfolio_KernelGPUPfS_'...
GPGPU-Sim PTX: reconvergence points for _Z28Pathcalc_Portfolio_KernelGPUPfS_...
GPGPU-Sim PTX:  1 (potential) branch divergence @  PC=0xfc0 (_1.ptx:889) @%p3 bra BB5_48;
GPGPU-Sim PTX:    immediate post dominator      @  PC=0x1ab0 (_1.ptx:1426) ret;
GPGPU-Sim PTX:  2 (potential) branch divergence @  PC=0x1010 (_1.ptx:907) @%p4 bra BB5_5;
GPGPU-Sim PTX:    immediate post dominator      @  PC=0x1078 (_1.ptx:930) @%p4 bra BB5_8;
GPGPU-Sim PTX:  3 (potential) branch divergence @  PC=0x1070 (_1.ptx:926) @%p5 bra BB5_4;
GPGPU-Sim PTX:    immediate post dominator      @  PC=0x1078 (_1.ptx:930) @%p4 bra BB5_8;
GPGPU-Sim PTX:  4 (potential) branch divergence @  PC=0x1078 (_1.ptx:930) @%p4 bra BB5_8;
GPGPU-Sim PTX:    immediate post dominator      @  PC=0x10d0 (_1.ptx:950) setp.lt.s32 %p8, %r3, 1;
GPGPU-Sim PTX:  5 (potential) branch divergence @  PC=0x10c8 (_1.ptx:946) @%p7 bra BB5_7;
GPGPU-Sim PTX:    immediate post dominator      @  PC=0x10d0 (_1.ptx:950) setp.lt.s32 %p8, %r3, 1;
GPGPU-Sim PTX:  6 (potential) branch divergence @  PC=0x10d8 (_1.ptx:951) @%p8 bra BB5_14;
GPGPU-Sim PTX:    immediate post dominator      @  PC=0x12d8 (_1.ptx:1043) sub.s32 %r142, %r2, %r3;
GPGPU-Sim PTX:  7 (potential) branch divergence @  PC=0x1178 (_1.ptx:977) @%p9 bra BB5_13;
GPGPU-Sim PTX:    immediate post dominator      @  PC=0x12b0 (_1.ptx:1034) setp.lt.s32 %p11, %r14, %r3;
GPGPU-Sim PTX:  8 (potential) branch divergence @  PC=0x12a8 (_1.ptx:1030) @%p10 bra BB5_12;
GPGPU-Sim PTX:    immediate post dominator      @  PC=0x12b0 (_1.ptx:1034) setp.lt.s32 %p11, %r14, %r3;
GPGPU-Sim PTX:  9 (potential) branch divergence @  PC=0x12d0 (_1.ptx:1039) @%p11 bra BB5_10;
GPGPU-Sim PTX:    immediate post dominator      @  PC=0x12d8 (_1.ptx:1043) sub.s32 %r142, %r2, %r3;
GPGPU-Sim PTX: 10 (potential) branch divergence @  PC=0x12f0 (_1.ptx:1046) @%p12 bra BB5_17;
GPGPU-Sim PTX:    immediate post dominator      @  PC=0x13b0 (_1.ptx:1083) @!%p1 bra BB5_20;
GPGPU-Sim PTX: 11 (potential) branch divergence @  PC=0x13a8 (_1.ptx:1079) @%p13 bra BB5_16;
GPGPU-Sim PTX:    immediate post dominator      @  PC=0x13b0 (_1.ptx:1083) @!%p1 bra BB5_20;
GPGPU-Sim PTX: 12 (potential) branch divergence @  PC=0x13b0 (_1.ptx:1083) @!%p1 bra BB5_20;
GPGPU-Sim PTX:    immediate post dominator      @  PC=0x1428 (_1.ptx:1110) setp.gt.s32 %p15, %r4, 0;
GPGPU-Sim PTX: 13 (potential) branch divergence @  PC=0x1420 (_1.ptx:1106) @%p14 bra BB5_19;
GPGPU-Sim PTX:    immediate post dominator      @  PC=0x1428 (_1.ptx:1110) setp.gt.s32 %p15, %r4, 0;
GPGPU-Sim PTX: 14 (potential) branch divergence @  PC=0x1430 (_1.ptx:1111) @%p15 bra BB5_22;
GPGPU-Sim PTX:    immediate post dominator      @  PC=0x1570 (_1.ptx:1171) add.s32 %r96, %r142, -1;
GPGPU-Sim PTX: 15 (potential) branch divergence @  PC=0x1440 (_1.ptx:1114) bra.uni BB5_26;
GPGPU-Sim PTX:    immediate post dominator      @  PC=0x1570 (_1.ptx:1171) add.s32 %r96, %r142, -1;
GPGPU-Sim PTX: 16 (potential) branch divergence @  PC=0x14d8 (_1.ptx:1141) @%p16 bra BB5_24;
GPGPU-Sim PTX:    immediate post dominator      @  PC=0x1548 (_1.ptx:1162) add.s64 %rl141, %rl141, 4;
GPGPU-Sim PTX: 17 (potential) branch divergence @  PC=0x14e0 (_1.ptx:1142) bra.uni BB5_25;
GPGPU-Sim PTX:    immediate post dominator      @  PC=0x1548 (_1.ptx:1162) add.s64 %rl141, %rl141, 4;
GPGPU-Sim PTX: 18 (potential) branch divergence @  PC=0x1568 (_1.ptx:1168) @%p17 bra BB5_23;
GPGPU-Sim PTX:    immediate post dominator      @  PC=0x1570 (_1.ptx:1171) add.s32 %r96, %r142, -1;
GPGPU-Sim PTX: 19 (potential) branch divergence @  PC=0x1580 (_1.ptx:1174) @%p18 bra BB5_31;
GPGPU-Sim PTX:    immediate post dominator      @  PC=0x16f8 (_1.ptx:1242) setp.gt.s32 %p2, %r3, 0;
GPGPU-Sim PTX: 20 (potential) branch divergence @  PC=0x1668 (_1.ptx:1214) @%p19 bra BB5_30;
GPGPU-Sim PTX:    immediate post dominator      @  PC=0x16d0 (_1.ptx:1233) add.s32 %r111, %r28, -2;
GPGPU-Sim PTX: 21 (potential) branch divergence @  PC=0x16f0 (_1.ptx:1238) @%p20 bra BB5_28;
GPGPU-Sim PTX:    immediate post dominator      @  PC=0x16f8 (_1.ptx:1242) setp.gt.s32 %p2, %r3, 0;
GPGPU-Sim PTX: 22 (potential) branch divergence @  PC=0x1700 (_1.ptx:1244) @%p2 bra BB5_33;
GPGPU-Sim PTX:    immediate post dominator      @  PC=0x1788 (_1.ptx:1274) mul.f32 %f22, %f94, %f93;
GPGPU-Sim PTX: 23 (potential) branch divergence @  PC=0x1710 (_1.ptx:1247) bra.uni BB5_35;
GPGPU-Sim PTX:    immediate post dominator      @  PC=0x1788 (_1.ptx:1274) mul.f32 %f22, %f94, %f93;
GPGPU-Sim PTX: 24 (potential) branch divergence @  PC=0x1780 (_1.ptx:1270) @%p21 bra BB5_34;
GPGPU-Sim PTX:    immediate post dominator      @  PC=0x1788 (_1.ptx:1274) mul.f32 %f22, %f94, %f93;
GPGPU-Sim PTX: 25 (potential) branch divergence @  PC=0x1790 (_1.ptx:1276) @!%p2 bra BB5_38;
GPGPU-Sim PTX:    immediate post dominator      @  PC=0x1818 (_1.ptx:1305) setp.ge.s32 %p23, %r3, %r2;
GPGPU-Sim PTX: 26 (potential) branch divergence @  PC=0x1810 (_1.ptx:1301) @%p22 bra BB5_37;
GPGPU-Sim PTX:    immediate post dominator      @  PC=0x1818 (_1.ptx:1305) setp.ge.s32 %p23, %r3, %r2;
GPGPU-Sim PTX: 27 (potential) branch divergence @  PC=0x1820 (_1.ptx:1306) @%p23 bra BB5_41;
GPGPU-Sim PTX:    immediate post dominator      @  PC=0x1890 (_1.ptx:1329) ld.param.u64 %rl130, [_Z28Pathcalc_Portfolio_KernelGPUPfS__param_0];
GPGPU-Sim PTX: 28 (potential) branch divergence @  PC=0x1888 (_1.ptx:1326) @%p24 bra BB5_40;
GPGPU-Sim PTX:    immediate post dominator      @  PC=0x1890 (_1.ptx:1329) ld.param.u64 %rl130, [_Z28Pathcalc_Portfolio_KernelGPUPfS__param_0];
GPGPU-Sim PTX: 29 (potential) branch divergence @  PC=0x18c8 (_1.ptx:1338) @%p25 bra BB5_47;
GPGPU-Sim PTX:    immediate post dominator      @  PC=0x1a60 (_1.ptx:1409) ld.param.u64 %rl131, [_Z28Pathcalc_Portfolio_KernelGPUPfS__param_1];
GPGPU-Sim PTX: 30 (potential) branch divergence @  PC=0x1900 (_1.ptx:1349) @%p26 bra BB5_46;
GPGPU-Sim PTX:    immediate post dominator      @  PC=0x1a30 (_1.ptx:1400) add.s32 %r149, %r149, -1;
GPGPU-Sim PTX: 31 (potential) branch divergence @  PC=0x1a28 (_1.ptx:1397) @%p27 bra BB5_45;
GPGPU-Sim PTX:    immediate post dominator      @  PC=0x1a30 (_1.ptx:1400) add.s32 %r149, %r149, -1;
GPGPU-Sim PTX: 32 (potential) branch divergence @  PC=0x1a58 (_1.ptx:1406) @%p28 bra BB5_43;
GPGPU-Sim PTX:    immediate post dominator      @  PC=0x1a60 (_1.ptx:1409) ld.param.u64 %rl131, [_Z28Pathcalc_Portfolio_KernelGPUPfS__param_1];
GPGPU-Sim PTX: 33 (potential) branch divergence @  PC=0x1aa8 (_1.ptx:1422) @%p29 bra BB5_2;
GPGPU-Sim PTX:    immediate post dominator      @  PC=0x1ab0 (_1.ptx:1426) ret;
GPGPU-Sim PTX: ... end of reconvergence points for _Z28Pathcalc_Portfolio_KernelGPUPfS_
GPGPU-Sim PTX: ... done pre-decoding instructions for '_Z28Pathcalc_Portfolio_KernelGPUPfS_'.
GPGPU-Sim PTX: allocating stack frame region for .local "__local_depot6" from 0x0 to 0x3c0
GPGPU-Sim PTX: instruction assembly for function '_Z29Pathcalc_Portfolio_KernelGPU2Pf'...   done.
GPGPU-Sim PTX: finding reconvergence points for '_Z29Pathcalc_Portfolio_KernelGPU2Pf'...
GPGPU-Sim PTX: Finding dominators for '_Z29Pathcalc_Portfolio_KernelGPU2Pf'...
GPGPU-Sim PTX: Finding immediate dominators for '_Z29Pathcalc_Portfolio_KernelGPU2Pf'...
GPGPU-Sim PTX: Finding postdominators for '_Z29Pathcalc_Portfolio_KernelGPU2Pf'...
GPGPU-Sim PTX: Finding immediate postdominators for '_Z29Pathcalc_Portfolio_KernelGPU2Pf'...
GPGPU-Sim PTX: pre-decoding instructions for '_Z29Pathcalc_Portfolio_KernelGPU2Pf'...
GPGPU-Sim PTX: reconvergence points for _Z29Pathcalc_Portfolio_KernelGPU2Pf...
GPGPU-Sim PTX:  1 (potential) branch divergence @  PC=0x1ae8 (_1.ptx:1450) @%p1 bra BB6_25;
GPGPU-Sim PTX:    immediate post dominator      @  PC=0x2000 (_1.ptx:1713) ret;
GPGPU-Sim PTX:  2 (potential) branch divergence @  PC=0x1b18 (_1.ptx:1464) @%p2 bra BB6_5;
GPGPU-Sim PTX:    immediate post dominator      @  PC=0x1b80 (_1.ptx:1487) setp.lt.s32 %p4, %r3, 1;
GPGPU-Sim PTX:  3 (potential) branch divergence @  PC=0x1b78 (_1.ptx:1483) @%p3 bra BB6_4;
GPGPU-Sim PTX:    immediate post dominator      @  PC=0x1b80 (_1.ptx:1487) setp.lt.s32 %p4, %r3, 1;
GPGPU-Sim PTX:  4 (potential) branch divergence @  PC=0x1b88 (_1.ptx:1488) @%p4 bra BB6_11;
GPGPU-Sim PTX:    immediate post dominator      @  PC=0x1d30 (_1.ptx:1568) setp.ge.s32 %p8, %r3, %r2;
GPGPU-Sim PTX:  5 (potential) branch divergence @  PC=0x1c18 (_1.ptx:1512) @%p5 bra BB6_10;
GPGPU-Sim PTX:    immediate post dominator      @  PC=0x1d10 (_1.ptx:1560) setp.lt.s32 %p7, %r61, %r3;
GPGPU-Sim PTX:  6 (potential) branch divergence @  PC=0x1d08 (_1.ptx:1556) @%p6 bra BB6_9;
GPGPU-Sim PTX:    immediate post dominator      @  PC=0x1d10 (_1.ptx:1560) setp.lt.s32 %p7, %r61, %r3;
GPGPU-Sim PTX:  7 (potential) branch divergence @  PC=0x1d28 (_1.ptx:1564) @%p7 bra BB6_7;
GPGPU-Sim PTX:    immediate post dominator      @  PC=0x1d30 (_1.ptx:1568) setp.ge.s32 %p8, %r3, %r2;
GPGPU-Sim PTX:  8 (potential) branch divergence @  PC=0x1d38 (_1.ptx:1569) @%p8 bra BB6_14;
GPGPU-Sim PTX:    immediate post dominator      @  PC=0x1e20 (_1.ptx:1613) setp.gt.s32 %p10, %r4, 0;
GPGPU-Sim PTX:  9 (potential) branch divergence @  PC=0x1e18 (_1.ptx:1609) @%p9 bra BB6_13;
GPGPU-Sim PTX:    immediate post dominator      @  PC=0x1e20 (_1.ptx:1613) setp.gt.s32 %p10, %r4, 0;
GPGPU-Sim PTX: 10 (potential) branch divergence @  PC=0x1e28 (_1.ptx:1614) @%p10 bra BB6_16;
GPGPU-Sim PTX:    immediate post dominator      @  PC=0x1f20 (_1.ptx:1663) setp.gt.s32 %p13, %r3, 0;
GPGPU-Sim PTX: 11 (potential) branch divergence @  PC=0x1e38 (_1.ptx:1617) bra.uni BB6_20;
GPGPU-Sim PTX:    immediate post dominator      @  PC=0x1f20 (_1.ptx:1663) setp.gt.s32 %p13, %r3, 0;
GPGPU-Sim PTX: 12 (potential) branch divergence @  PC=0x1ec8 (_1.ptx:1642) @%p11 bra BB6_18;
GPGPU-Sim PTX:    immediate post dominator      @  PC=0x1ef8 (_1.ptx:1653) add.s64 %rl60, %rl60, 4;
GPGPU-Sim PTX: 13 (potential) branch divergence @  PC=0x1ed0 (_1.ptx:1643) bra.uni BB6_19;
GPGPU-Sim PTX:    immediate post dominator      @  PC=0x1ef8 (_1.ptx:1653) add.s64 %rl60, %rl60, 4;
GPGPU-Sim PTX: 14 (potential) branch divergence @  PC=0x1f18 (_1.ptx:1659) @%p12 bra BB6_17;
GPGPU-Sim PTX:    immediate post dominator      @  PC=0x1f20 (_1.ptx:1663) setp.gt.s32 %p13, %r3, 0;
GPGPU-Sim PTX: 15 (potential) branch divergence @  PC=0x1f28 (_1.ptx:1665) @%p13 bra BB6_22;
GPGPU-Sim PTX:    immediate post dominator      @  PC=0x1fb0 (_1.ptx:1694) ld.param.u64 %rl53, [_Z29Pathcalc_Portfolio_KernelGPU2Pf_param_0];
GPGPU-Sim PTX: 16 (potential) branch divergence @  PC=0x1f38 (_1.ptx:1668) bra.uni BB6_24;
GPGPU-Sim PTX:    immediate post dominator      @  PC=0x1fb0 (_1.ptx:1694) ld.param.u64 %rl53, [_Z29Pathcalc_Portfolio_KernelGPU2Pf_param_0];
GPGPU-Sim PTX: 17 (potential) branch divergence @  PC=0x1fa8 (_1.ptx:1691) @%p14 bra BB6_23;
GPGPU-Sim PTX:    immediate post dominator      @  PC=0x1fb0 (_1.ptx:1694) ld.param.u64 %rl53, [_Z29Pathcalc_Portfolio_KernelGPU2Pf_param_0];
GPGPU-Sim PTX: 18 (potential) branch divergence @  PC=0x1ff8 (_1.ptx:1709) @%p15 bra BB6_2;
GPGPU-Sim PTX:    immediate post dominator      @  PC=0x2000 (_1.ptx:1713) ret;
GPGPU-Sim PTX: ... end of reconvergence points for _Z29Pathcalc_Portfolio_KernelGPU2Pf
GPGPU-Sim PTX: ... done pre-decoding instructions for '_Z29Pathcalc_Portfolio_KernelGPU2Pf'.
GPGPU-Sim PTX: finished parsing EMBEDDED .ptx file _1.ptx
Adding _cuobjdump_2.ptx with cubin handle 1
GPGPU-Sim PTX: extracting embedded .ptx to temporary file "_ptx_hnsLcX"
Running: cat _ptx_hnsLcX | sed 's/.version 1.5/.version 1.4/' | sed 's/, texmode_independent//' | sed 's/\(\.extern \.const\[1\] .b8 \w\+\)\[\]/\1\[1\]/' | sed 's/const\[.\]/const\[0\]/g' > _ptx2_1AOtsj
GPGPU-Sim PTX: generating ptxinfo using "$CUDA_INSTALL_PATH/bin/ptxas --gpu-name=sm_20 -v _ptx2_1AOtsj --output-file  /dev/null 2> _ptx_hnsLcXinfo"
GPGPU-Sim PTX: Kernel '_Z28Pathcalc_Portfolio_KernelGPUPfS_' : regs=29, lmem=0, smem=0, cmem=524
GPGPU-Sim PTX: Kernel '_Z29Pathcalc_Portfolio_KernelGPU2Pf' : regs=24, lmem=0, smem=0, cmem=516
GPGPU-Sim PTX: removing ptxinfo using "rm -f _ptx_hnsLcX _ptx2_1AOtsj _ptx_hnsLcXinfo"
GPGPU-Sim PTX: loading globals with explicit initializers... 
GPGPU-Sim PTX: finished loading globals (0 bytes total).
GPGPU-Sim PTX: loading constants with explicit initializers...  done.
GPGPU-Sim PTX: __cudaRegisterFunction _Z28Pathcalc_Portfolio_KernelGPUPfS_ : hostFun 0x0x403d40, fat_cubin_handle = 1
GPGPU-Sim PTX: __cudaRegisterVar: hostVar = 0x638408; deviceAddress = N; deviceName = N
GPGPU-Sim PTX: __cudaRegisterVar: Registering const memory space of 4 bytes
GPGPU-Sim PTX registering constant N (4 bytes) to name mapping
GPGPU-Sim PTX: __cudaRegisterVar: hostVar = 0x63840c; deviceAddress = Nmat; deviceName = Nmat
GPGPU-Sim PTX: __cudaRegisterVar: Registering const memory space of 4 bytes
GPGPU-Sim PTX registering constant Nmat (4 bytes) to name mapping
GPGPU-Sim PTX: __cudaRegisterVar: hostVar = 0x638410; deviceAddress = Nopt; deviceName = Nopt
GPGPU-Sim PTX: __cudaRegisterVar: Registering const memory space of 4 bytes
GPGPU-Sim PTX registering constant Nopt (4 bytes) to name mapping
GPGPU-Sim PTX: __cudaRegisterVar: hostVar = 0x638420; deviceAddress = maturities; deviceName = maturities
GPGPU-Sim PTX: __cudaRegisterVar: Registering const memory space of 60 bytes
GPGPU-Sim PTX registering constant maturities (60 bytes) to name mapping
GPGPU-Sim PTX: __cudaRegisterVar: hostVar = 0x63845c; deviceAddress = delta; deviceName = delta
GPGPU-Sim PTX: __cudaRegisterVar: Registering const memory space of 4 bytes
GPGPU-Sim PTX registering constant delta (4 bytes) to name mapping
GPGPU-Sim PTX: __cudaRegisterVar: hostVar = 0x638460; deviceAddress = swaprates; deviceName = swaprates
GPGPU-Sim PTX: __cudaRegisterVar: Registering const memory space of 60 bytes
GPGPU-Sim PTX registering constant swaprates (60 bytes) to name mapping
GPGPU-Sim PTX: __cudaRegisterVar: hostVar = 0x6384a0; deviceAddress = lambda; deviceName = lambda
GPGPU-Sim PTX: __cudaRegisterVar: Registering const memory space of 320 bytes
GPGPU-Sim PTX registering constant lambda (320 bytes) to name mapping
GPGPU-Sim PTX: cudaMemcpyToSymbol: symbol = 0x638408
GPGPU-Sim PTX: starting gpgpu_ptx_sim_memcpy_symbol with hostVar 0x0x638408
GPGPU-Sim PTX: gpgpu_ptx_sim_memcpy_symbol: Found PTX symbol w/ hostVar=0x638408
GPGPU-Sim PTX: gpgpu_ptx_sim_memcpy_symbol: copying const memory 4 bytes  to  symbol N+0 @0x100 ...
GPGPU-Sim PTX: cudaMemcpyToSymbol: symbol = 0x63840c
GPGPU-Sim PTX: starting gpgpu_ptx_sim_memcpy_symbol with hostVar 0x0x63840c
GPGPU-Sim PTX: gpgpu_ptx_sim_memcpy_symbol: Found PTX symbol w/ hostVar=0x63840c
GPGPU-Sim PTX: gpgpu_ptx_sim_memcpy_symbol: copying const memory 4 bytes  to  symbol Nmat+0 @0x104 ...
GPGPU-Sim PTX: cudaMemcpyToSymbol: symbol = 0x638410
GPGPU-Sim PTX: starting gpgpu_ptx_sim_memcpy_symbol with hostVar 0x0x638410
GPGPU-Sim PTX: gpgpu_ptx_sim_memcpy_symbol: Found PTX symbol w/ hostVar=0x638410
GPGPU-Sim PTX: gpgpu_ptx_sim_memcpy_symbol: copying const memory 4 bytes  to  symbol Nopt+0 @0x108 ...
GPGPU-Sim PTX: cudaMemcpyToSymbol: symbol = 0x63845c
GPGPU-Sim PTX: starting gpgpu_ptx_sim_memcpy_symbol with hostVar 0x0x63845c
GPGPU-Sim PTX: gpgpu_ptx_sim_memcpy_symbol: Found PTX symbol w/ hostVar=0x63845c
GPGPU-Sim PTX: gpgpu_ptx_sim_memcpy_symbol: copying const memory 4 bytes  to  symbol delta+0 @0x1bc ...
GPGPU-Sim PTX: cudaMemcpyToSymbol: symbol = 0x638420
GPGPU-Sim PTX: starting gpgpu_ptx_sim_memcpy_symbol with hostVar 0x0x638420
GPGPU-Sim PTX: gpgpu_ptx_sim_memcpy_symbol: Found PTX symbol w/ hostVar=0x638420
GPGPU-Sim PTX: gpgpu_ptx_sim_memcpy_symbol: copying const memory 60 bytes  to  symbol maturities+0 @0x180 ...
GPGPU-Sim PTX: cudaMemcpyToSymbol: symbol = 0x638460
GPGPU-Sim PTX: starting gpgpu_ptx_sim_memcpy_symbol with hostVar 0x0x638460
GPGPU-Sim PTX: gpgpu_ptx_sim_memcpy_symbol: Found PTX symbol w/ hostVar=0x638460
GPGPU-Sim PTX: gpgpu_ptx_sim_memcpy_symbol: copying const memory 60 bytes  to  symbol swaprates+0 @0x200 ...
GPGPU-Sim PTX: cudaMemcpyToSymbol: symbol = 0x6384a0
GPGPU-Sim PTX: starting gpgpu_ptx_sim_memcpy_symbol with hostVar 0x0x6384a0
GPGPU-Sim PTX: gpgpu_ptx_sim_memcpy_symbol: Found PTX symbol w/ hostVar=0x6384a0
GPGPU-Sim PTX: gpgpu_ptx_sim_memcpy_symbol: copying const memory 320 bytes  to  symbol lambda+0 @0x280 ...
GPGPU-Sim: synchronize waiting for inactive GPU simulation
GPGPU-Sim API: Stream Manager State
GPGPU-Sim: detected inactive GPU simulation thread

GPGPU-Sim PTX: cudaLaunch for 0x0x403cd0 (mode=performance simulation) on stream 0
GPGPU-Sim PTX: pushing kernel '_Z29Pathcalc_Portfolio_KernelGPU2Pf' to stream 0, gridDim= (64,1,1) blockDim = (64,1,1) 
kernel '_Z29Pathcalc_Portfolio_KernelGPU2Pf' transfer to GPU hardware scheduler
GPGPU-Sim uArch: Shader 1 bind to kernel 1 '_Z29Pathcalc_Portfolio_KernelGPU2Pf'
GPGPU-Sim uArch: CTA/core = 8, limited by: cta_limit
GPGPU-Sim uArch: core:  1, cta: 0 initialized @(1,0)
GPGPU-Sim uArch: Shader 2 bind to kernel 1 '_Z29Pathcalc_Portfolio_KernelGPU2Pf'
GPGPU-Sim uArch: core:  2, cta: 0 initialized @(1,0)
GPGPU-Sim uArch: Shader 3 bind to kernel 1 '_Z29Pathcalc_Portfolio_KernelGPU2Pf'
GPGPU-Sim uArch: core:  3, cta: 0 initialized @(1,0)
GPGPU-Sim uArch: Shader 4 bind to kernel 1 '_Z29Pathcalc_Portfolio_KernelGPU2Pf'
GPGPU-Sim uArch: core:  4, cta: 0 initialized @(1,0)
GPGPU-Sim uArch: Shader 5 bind to kernel 1 '_Z29Pathcalc_Portfolio_KernelGPU2Pf'
GPGPU-Sim uArch: core:  5, cta: 0 initialized @(1,0)
GPGPU-Sim uArch: Shader 6 bind to kernel 1 '_Z29Pathcalc_Portfolio_KernelGPU2Pf'
GPGPU-Sim uArch: core:  6, cta: 0 initialized @(1,0)
GPGPU-Sim uArch: Shader 7 bind to kernel 1 '_Z29Pathcalc_Portfolio_KernelGPU2Pf'
GPGPU-Sim uArch: core:  7, cta: 0 initialized @(1,0)
GPGPU-Sim uArch: Shader 8 bind to kernel 1 '_Z29Pathcalc_Portfolio_KernelGPU2Pf'
GPGPU-Sim uArch: core:  8, cta: 0 initialized @(1,0)
GPGPU-Sim uArch: Shader 9 bind to kernel 1 '_Z29Pathcalc_Portfolio_KernelGPU2Pf'
GPGPU-Sim uArch: core:  9, cta: 0 initialized @(1,0)
GPGPU-Sim uArch: Shader 10 bind to kernel 1 '_Z29Pathcalc_Portfolio_KernelGPU2Pf'
GPGPU-Sim uArch: core: 10, cta: 0 initialized @(1,0)
GPGPU-Sim uArch: Shader 11 bind to kernel 1 '_Z29Pathcalc_Portfolio_KernelGPU2Pf'
GPGPU-Sim uArch: core: 11, cta: 0 initialized @(1,0)
GPGPU-Sim uArch: Shader 12 bind to kernel 1 '_Z29Pathcalc_Portfolio_KernelGPU2Pf'
GPGPU-Sim uArch: core: 12, cta: 0 initialized @(1,0)
GPGPU-Sim uArch: Shader 13 bind to kernel 1 '_Z29Pathcalc_Portfolio_KernelGPU2Pf'
GPGPU-Sim uArch: core: 13, cta: 0 initialized @(1,0)
GPGPU-Sim uArch: Shader 14 bind to kernel 1 '_Z29Pathcalc_Portfolio_KernelGPU2Pf'
GPGPU-Sim uArch: core: 14, cta: 0 initialized @(1,0)
GPGPU-Sim uArch: Shader 0 bind to kernel 1 '_Z29Pathcalc_Portfolio_KernelGPU2Pf'
GPGPU-Sim uArch: core:  0, cta: 0 initialized @(1,0)
GPGPU-Sim uArch: core:  1, cta: 1 initialized @(2,0)
GPGPU-Sim uArch: core:  2, cta: 1 initialized @(2,0)
GPGPU-Sim uArch: core:  3, cta: 1 initialized @(2,0)
GPGPU-Sim uArch: core:  4, cta: 1 initialized @(2,0)
GPGPU-Sim uArch: core:  5, cta: 1 initialized @(2,0)
GPGPU-Sim uArch: core:  6, cta: 1 initialized @(2,0)
GPGPU-Sim uArch: core:  7, cta: 1 initialized @(2,0)
GPGPU-Sim uArch: core:  8, cta: 1 initialized @(2,0)
GPGPU-Sim uArch: core:  9, cta: 1 initialized @(2,0)
GPGPU-Sim uArch: core: 10, cta: 1 initialized @(2,0)
GPGPU-Sim uArch: core: 11, cta: 1 initialized @(2,0)
GPGPU-Sim uArch: core: 12, cta: 1 initialized @(2,0)
GPGPU-Sim uArch: core: 13, cta: 1 initialized @(2,0)
GPGPU-Sim uArch: core: 14, cta: 1 initialized @(2,0)
GPGPU-Sim uArch: core:  0, cta: 1 initialized @(2,0)
GPGPU-Sim uArch: core:  1, cta: 2 initialized @(3,0)
GPGPU-Sim uArch: core:  2, cta: 2 initialized @(3,0)
GPGPU-Sim uArch: core:  3, cta: 2 initialized @(3,0)
GPGPU-Sim uArch: core:  4, cta: 2 initialized @(3,0)
GPGPU-Sim uArch: core:  5, cta: 2 initialized @(3,0)
GPGPU-Sim uArch: core:  6, cta: 2 initialized @(3,0)
GPGPU-Sim uArch: core:  7, cta: 2 initialized @(3,0)
GPGPU-Sim uArch: core:  8, cta: 2 initialized @(3,0)
GPGPU-Sim uArch: core:  9, cta: 2 initialized @(3,0)
GPGPU-Sim uArch: core: 10, cta: 2 initialized @(3,0)
GPGPU-Sim uArch: core: 11, cta: 2 initialized @(3,0)
GPGPU-Sim uArch: core: 12, cta: 2 initialized @(3,0)
GPGPU-Sim uArch: core: 13, cta: 2 initialized @(3,0)
GPGPU-Sim uArch: core: 14, cta: 2 initialized @(3,0)
GPGPU-Sim uArch: core:  0, cta: 2 initialized @(3,0)
GPGPU-Sim uArch: core:  1, cta: 3 initialized @(4,0)
GPGPU-Sim uArch: core:  2, cta: 3 initialized @(4,0)
GPGPU-Sim uArch: core:  3, cta: 3 initialized @(4,0)
GPGPU-Sim uArch: core:  4, cta: 3 initialized @(4,0)
GPGPU-Sim uArch: core:  5, cta: 3 initialized @(4,0)
GPGPU-Sim uArch: core:  6, cta: 3 initialized @(4,0)
GPGPU-Sim uArch: core:  7, cta: 3 initialized @(4,0)
GPGPU-Sim uArch: core:  8, cta: 3 initialized @(4,0)
GPGPU-Sim uArch: core:  9, cta: 3 initialized @(4,0)
GPGPU-Sim uArch: core: 10, cta: 3 initialized @(4,0)
GPGPU-Sim uArch: core: 11, cta: 3 initialized @(4,0)
GPGPU-Sim uArch: core: 12, cta: 3 initialized @(4,0)
GPGPU-Sim uArch: core: 13, cta: 3 initialized @(4,0)
GPGPU-Sim uArch: core: 14, cta: 3 initialized @(4,0)
GPGPU-Sim uArch: core:  0, cta: 3 initialized @(4,0)
GPGPU-Sim uArch: core:  1, cta: 4 initialized @(5,0)
GPGPU-Sim uArch: core:  2, cta: 4 initialized @(5,0)
GPGPU-Sim uArch: core:  3, cta: 4 initialized @(5,0)
GPGPU-Sim uArch: core:  4, cta: 4 initialized @(5,0)
GPGPU-Sim uArch: cycles simulated: 500  inst.: 24576 (ipc=49.2) sim_rate=24576 (inst/sec) elapsed = 0:0:00:01 / Tue Apr  6 04:30:07 2021
GPGPU-Sim PTX: 100000 instructions simulated : ctaid=(1,0,0) tid=(31,0,0)
GPGPU-Sim PTX: 200000 instructions simulated : ctaid=(10,0,0) tid=(31,0,0)
GPGPU-Sim PTX: 300000 instructions simulated : ctaid=(48,0,0) tid=(31,0,0)
GPGPU-Sim PTX: 400000 instructions simulated : ctaid=(38,0,0) tid=(31,0,0)
GPGPU-Sim uArch: cycles simulated: 4500  inst.: 452320 (ipc=100.5) sim_rate=226160 (inst/sec) elapsed = 0:0:00:02 / Tue Apr  6 04:30:09 2021
GPGPU-Sim PTX: 500000 instructions simulated : ctaid=(29,0,0) tid=(31,0,0)
GPGPU-Sim PTX: 600000 instructions simulated : ctaid=(27,0,0) tid=(31,0,0)
GPGPU-Sim PTX: 700000 instructions simulated : ctaid=(17,0,0) tid=(31,0,0)
GPGPU-Sim uArch: cycles simulated: 7000  inst.: 707232 (ipc=101.0) sim_rate=235744 (inst/sec) elapsed = 0:0:00:03 / Tue Apr  6 04:30:10 2021
GPGPU-Sim PTX: 800000 instructions simulated : ctaid=(0,0,0) tid=(31,0,0)
GPGPU-Sim PTX: 900000 instructions simulated : ctaid=(25,0,0) tid=(31,0,0)
GPGPU-Sim uArch: cycles simulated: 9500  inst.: 939776 (ipc=98.9) sim_rate=234944 (inst/sec) elapsed = 0:0:00:04 / Tue Apr  6 04:30:11 2021
GPGPU-Sim PTX: 1000000 instructions simulated : ctaid=(8,0,0) tid=(31,0,0)
GPGPU-Sim PTX: 1100000 instructions simulated : ctaid=(49,0,0) tid=(31,0,0)
GPGPU-Sim PTX: 1200000 instructions simulated : ctaid=(33,0,0) tid=(31,0,0)
GPGPU-Sim uArch: cycles simulated: 12500  inst.: 1261632 (ipc=100.9) sim_rate=252326 (inst/sec) elapsed = 0:0:00:05 / Tue Apr  6 04:30:12 2021
GPGPU-Sim PTX: 1300000 instructions simulated : ctaid=(44,0,0) tid=(31,0,0)
GPGPU-Sim PTX: 1400000 instructions simulated : ctaid=(48,0,0) tid=(31,0,0)
GPGPU-Sim PTX: 1500000 instructions simulated : ctaid=(61,0,0) tid=(31,0,0)
GPGPU-Sim uArch: cycles simulated: 15000  inst.: 1544320 (ipc=103.0) sim_rate=257386 (inst/sec) elapsed = 0:0:00:06 / Tue Apr  6 04:30:13 2021
GPGPU-Sim PTX: 1600000 instructions simulated : ctaid=(44,0,0) tid=(31,0,0)
GPGPU-Sim PTX: 1700000 instructions simulated : ctaid=(23,0,0) tid=(31,0,0)
GPGPU-Sim PTX: 1800000 instructions simulated : ctaid=(48,0,0) tid=(31,0,0)
GPGPU-Sim uArch: cycles simulated: 17500  inst.: 1842144 (ipc=105.3) sim_rate=263163 (inst/sec) elapsed = 0:0:00:07 / Tue Apr  6 04:30:14 2021
GPGPU-Sim PTX: 1900000 instructions simulated : ctaid=(22,0,0) tid=(63,0,0)
GPGPU-Sim PTX: 2000000 instructions simulated : ctaid=(28,0,0) tid=(31,0,0)
GPGPU-Sim PTX: 2100000 instructions simulated : ctaid=(17,0,0) tid=(63,0,0)
GPGPU-Sim PTX: 2200000 instructions simulated : ctaid=(50,0,0) tid=(63,0,0)
GPGPU-Sim uArch: cycles simulated: 20500  inst.: 2215136 (ipc=108.1) sim_rate=276892 (inst/sec) elapsed = 0:0:00:08 / Tue Apr  6 04:30:15 2021
GPGPU-Sim PTX: 2300000 instructions simulated : ctaid=(20,0,0) tid=(63,0,0)
GPGPU-Sim PTX: 2400000 instructions simulated : ctaid=(7,0,0) tid=(63,0,0)
GPGPU-Sim PTX: 2500000 instructions simulated : ctaid=(30,0,0) tid=(31,0,0)
GPGPU-Sim uArch: cycles simulated: 23000  inst.: 2552480 (ipc=111.0) sim_rate=283608 (inst/sec) elapsed = 0:0:00:09 / Tue Apr  6 04:30:16 2021
GPGPU-Sim PTX: 2600000 instructions simulated : ctaid=(44,0,0) tid=(63,0,0)
GPGPU-Sim PTX: 2700000 instructions simulated : ctaid=(55,0,0) tid=(63,0,0)
GPGPU-Sim PTX: 2800000 instructions simulated : ctaid=(5,0,0) tid=(63,0,0)
GPGPU-Sim PTX: 2900000 instructions simulated : ctaid=(51,0,0) tid=(63,0,0)
GPGPU-Sim uArch: cycles simulated: 25500  inst.: 2898016 (ipc=113.6) sim_rate=289801 (inst/sec) elapsed = 0:0:00:10 / Tue Apr  6 04:30:17 2021
GPGPU-Sim PTX: 3000000 instructions simulated : ctaid=(13,0,0) tid=(63,0,0)
GPGPU-Sim PTX: 3100000 instructions simulated : ctaid=(58,0,0) tid=(63,0,0)
GPGPU-Sim PTX: 3200000 instructions simulated : ctaid=(38,0,0) tid=(63,0,0)
GPGPU-Sim uArch: cycles simulated: 28000  inst.: 3263328 (ipc=116.5) sim_rate=296666 (inst/sec) elapsed = 0:0:00:11 / Tue Apr  6 04:30:18 2021
GPGPU-Sim PTX: 3300000 instructions simulated : ctaid=(58,0,0) tid=(63,0,0)
GPGPU-Sim PTX: 3400000 instructions simulated : ctaid=(13,0,0) tid=(31,0,0)
GPGPU-Sim PTX: 3500000 instructions simulated : ctaid=(60,0,0) tid=(31,0,0)
GPGPU-Sim PTX: 3600000 instructions simulated : ctaid=(57,0,0) tid=(63,0,0)
GPGPU-Sim PTX: 3700000 instructions simulated : ctaid=(37,0,0) tid=(63,0,0)
GPGPU-Sim uArch: cycles simulated: 30500  inst.: 3680544 (ipc=120.7) sim_rate=306712 (inst/sec) elapsed = 0:0:00:12 / Tue Apr  6 04:30:19 2021
GPGPU-Sim PTX: 3800000 instructions simulated : ctaid=(15,0,0) tid=(31,0,0)
GPGPU-Sim PTX: 3900000 instructions simulated : ctaid=(8,0,0) tid=(63,0,0)
GPGPU-Sim PTX: 4000000 instructions simulated : ctaid=(36,0,0) tid=(63,0,0)
GPGPU-Sim PTX: 4100000 instructions simulated : ctaid=(16,0,0) tid=(63,0,0)
GPGPU-Sim uArch: cycles simulated: 32500  inst.: 4091648 (ipc=125.9) sim_rate=314742 (inst/sec) elapsed = 0:0:00:13 / Tue Apr  6 04:30:20 2021
GPGPU-Sim PTX: 4200000 instructions simulated : ctaid=(20,0,0) tid=(31,0,0)
GPGPU-Sim PTX: 4300000 instructions simulated : ctaid=(57,0,0) tid=(31,0,0)
GPGPU-Sim PTX: 4400000 instructions simulated : ctaid=(22,0,0) tid=(31,0,0)
GPGPU-Sim PTX: 4500000 instructions simulated : ctaid=(23,0,0) tid=(63,0,0)
GPGPU-Sim PTX: 4600000 instructions simulated : ctaid=(54,0,0) tid=(31,0,0)
GPGPU-Sim uArch: cycles simulated: 35000  inst.: 4617248 (ipc=131.9) sim_rate=329803 (inst/sec) elapsed = 0:0:00:14 / Tue Apr  6 04:30:21 2021
GPGPU-Sim PTX: 4700000 instructions simulated : ctaid=(63,0,0) tid=(31,0,0)
GPGPU-Sim PTX: 4800000 instructions simulated : ctaid=(44,0,0) tid=(63,0,0)
GPGPU-Sim PTX: 4900000 instructions simulated : ctaid=(60,0,0) tid=(63,0,0)
GPGPU-Sim PTX: 5000000 instructions simulated : ctaid=(8,0,0) tid=(31,0,0)
GPGPU-Sim uArch: cycles simulated: 37000  inst.: 5042208 (ipc=136.3) sim_rate=336147 (inst/sec) elapsed = 0:0:00:15 / Tue Apr  6 04:30:22 2021
GPGPU-Sim PTX: 5100000 instructions simulated : ctaid=(2,0,0) tid=(31,0,0)
GPGPU-Sim PTX: 5200000 instructions simulated : ctaid=(11,0,0) tid=(63,0,0)
GPGPU-Sim PTX: 5300000 instructions simulated : ctaid=(50,0,0) tid=(31,0,0)
GPGPU-Sim PTX: 5400000 instructions simulated : ctaid=(46,0,0) tid=(63,0,0)
GPGPU-Sim PTX: 5500000 instructions simulated : ctaid=(41,0,0) tid=(31,0,0)
GPGPU-Sim uArch: cycles simulated: 39500  inst.: 5566240 (ipc=140.9) sim_rate=347890 (inst/sec) elapsed = 0:0:00:16 / Tue Apr  6 04:30:23 2021
GPGPU-Sim PTX: 5600000 instructions simulated : ctaid=(24,0,0) tid=(31,0,0)
GPGPU-Sim PTX: 5700000 instructions simulated : ctaid=(56,0,0) tid=(31,0,0)
GPGPU-Sim PTX: 5800000 instructions simulated : ctaid=(24,0,0) tid=(31,0,0)
GPGPU-Sim PTX: 5900000 instructions simulated : ctaid=(19,0,0) tid=(31,0,0)
GPGPU-Sim PTX: 6000000 instructions simulated : ctaid=(19,0,0) tid=(31,0,0)
GPGPU-Sim uArch: cycles simulated: 41500  inst.: 5988672 (ipc=144.3) sim_rate=352274 (inst/sec) elapsed = 0:0:00:17 / Tue Apr  6 04:30:24 2021
GPGPU-Sim PTX: 6100000 instructions simulated : ctaid=(44,0,0) tid=(31,0,0)
GPGPU-Sim PTX: 6200000 instructions simulated : ctaid=(25,0,0) tid=(31,0,0)
GPGPU-Sim PTX: 6300000 instructions simulated : ctaid=(24,0,0) tid=(31,0,0)
GPGPU-Sim PTX: 6400000 instructions simulated : ctaid=(25,0,0) tid=(63,0,0)
GPGPU-Sim uArch: cycles simulated: 43500  inst.: 6413760 (ipc=147.4) sim_rate=356320 (inst/sec) elapsed = 0:0:00:18 / Tue Apr  6 04:30:25 2021
GPGPU-Sim PTX: 6500000 instructions simulated : ctaid=(44,0,0) tid=(63,0,0)
GPGPU-Sim PTX: 6600000 instructions simulated : ctaid=(36,0,0) tid=(63,0,0)
GPGPU-Sim PTX: 6700000 instructions simulated : ctaid=(36,0,0) tid=(63,0,0)
GPGPU-Sim PTX: 6800000 instructions simulated : ctaid=(20,0,0) tid=(31,0,0)
GPGPU-Sim uArch: cycles simulated: 45500  inst.: 6840192 (ipc=150.3) sim_rate=360010 (inst/sec) elapsed = 0:0:00:19 / Tue Apr  6 04:30:26 2021
GPGPU-Sim PTX: 6900000 instructions simulated : ctaid=(54,0,0) tid=(31,0,0)
GPGPU-Sim PTX: 7000000 instructions simulated : ctaid=(14,0,0) tid=(63,0,0)
GPGPU-Sim PTX: 7100000 instructions simulated : ctaid=(8,0,0) tid=(31,0,0)
GPGPU-Sim PTX: 7200000 instructions simulated : ctaid=(14,0,0) tid=(31,0,0)
GPGPU-Sim PTX: 7300000 instructions simulated : ctaid=(55,0,0) tid=(31,0,0)
GPGPU-Sim uArch: cycles simulated: 48000  inst.: 7360000 (ipc=153.3) sim_rate=368000 (inst/sec) elapsed = 0:0:00:20 / Tue Apr  6 04:30:27 2021
GPGPU-Sim PTX: 7400000 instructions simulated : ctaid=(29,0,0) tid=(63,0,0)
GPGPU-Sim PTX: 7500000 instructions simulated : ctaid=(38,0,0) tid=(31,0,0)
GPGPU-Sim PTX: 7600000 instructions simulated : ctaid=(38,0,0) tid=(31,0,0)
GPGPU-Sim PTX: 7700000 instructions simulated : ctaid=(7,0,0) tid=(31,0,0)
GPGPU-Sim uArch: cycles simulated: 50000  inst.: 7771104 (ipc=155.4) sim_rate=370052 (inst/sec) elapsed = 0:0:00:21 / Tue Apr  6 04:30:28 2021
GPGPU-Sim PTX: 7800000 instructions simulated : ctaid=(54,0,0) tid=(63,0,0)
GPGPU-Sim PTX: 7900000 instructions simulated : ctaid=(61,0,0) tid=(63,0,0)
GPGPU-Sim PTX: 8000000 instructions simulated : ctaid=(29,0,0) tid=(63,0,0)
GPGPU-Sim PTX: 8100000 instructions simulated : ctaid=(20,0,0) tid=(31,0,0)
GPGPU-Sim uArch: cycles simulated: 51500  inst.: 8078272 (ipc=156.9) sim_rate=367194 (inst/sec) elapsed = 0:0:00:22 / Tue Apr  6 04:30:29 2021
GPGPU-Sim PTX: 8200000 instructions simulated : ctaid=(32,0,0) tid=(63,0,0)
GPGPU-Sim PTX: 8300000 instructions simulated : ctaid=(23,0,0) tid=(63,0,0)
GPGPU-Sim PTX: 8400000 instructions simulated : ctaid=(38,0,0) tid=(63,0,0)
GPGPU-Sim uArch: cycles simulated: 53000  inst.: 8381856 (ipc=158.1) sim_rate=364428 (inst/sec) elapsed = 0:0:00:23 / Tue Apr  6 04:30:30 2021
GPGPU-Sim PTX: 8500000 instructions simulated : ctaid=(47,0,0) tid=(31,0,0)
GPGPU-Sim PTX: 8600000 instructions simulated : ctaid=(43,0,0) tid=(63,0,0)
GPGPU-Sim PTX: 8700000 instructions simulated : ctaid=(31,0,0) tid=(63,0,0)
GPGPU-Sim uArch: cycles simulated: 54500  inst.: 8681312 (ipc=159.3) sim_rate=361721 (inst/sec) elapsed = 0:0:00:24 / Tue Apr  6 04:30:31 2021
GPGPU-Sim PTX: 8800000 instructions simulated : ctaid=(17,0,0) tid=(63,0,0)
GPGPU-Sim PTX: 8900000 instructions simulated : ctaid=(13,0,0) tid=(31,0,0)
GPGPU-Sim PTX: 9000000 instructions simulated : ctaid=(32,0,0) tid=(31,0,0)
GPGPU-Sim PTX: 9100000 instructions simulated : ctaid=(51,0,0) tid=(63,0,0)
GPGPU-Sim uArch: cycles simulated: 56500  inst.: 9082592 (ipc=160.8) sim_rate=363303 (inst/sec) elapsed = 0:0:00:25 / Tue Apr  6 04:30:32 2021
GPGPU-Sim PTX: 9200000 instructions simulated : ctaid=(7,0,0) tid=(31,0,0)
GPGPU-Sim PTX: 9300000 instructions simulated : ctaid=(60,0,0) tid=(31,0,0)
GPGPU-Sim PTX: 9400000 instructions simulated : ctaid=(3,0,0) tid=(63,0,0)
GPGPU-Sim uArch: cycles simulated: 58000  inst.: 9383968 (ipc=161.8) sim_rate=360921 (inst/sec) elapsed = 0:0:00:26 / Tue Apr  6 04:30:33 2021
GPGPU-Sim PTX: 9500000 instructions simulated : ctaid=(18,0,0) tid=(63,0,0)
GPGPU-Sim PTX: 9600000 instructions simulated : ctaid=(51,0,0) tid=(31,0,0)
GPGPU-Sim PTX: 9700000 instructions simulated : ctaid=(16,0,0) tid=(31,0,0)
GPGPU-Sim PTX: 9800000 instructions simulated : ctaid=(58,0,0) tid=(63,0,0)
GPGPU-Sim uArch: cycles simulated: 60000  inst.: 9784736 (ipc=163.1) sim_rate=362397 (inst/sec) elapsed = 0:0:00:27 / Tue Apr  6 04:30:34 2021
GPGPU-Sim PTX: 9900000 instructions simulated : ctaid=(61,0,0) tid=(31,0,0)
GPGPU-Sim PTX: 10000000 instructions simulated : ctaid=(1,0,0) tid=(63,0,0)
GPGPU-Sim PTX: 10100000 instructions simulated : ctaid=(54,0,0) tid=(31,0,0)
GPGPU-Sim uArch: cycles simulated: 61500  inst.: 10091040 (ipc=164.1) sim_rate=360394 (inst/sec) elapsed = 0:0:00:28 / Tue Apr  6 04:30:35 2021
GPGPU-Sim PTX: 10200000 instructions simulated : ctaid=(57,0,0) tid=(63,0,0)
GPGPU-Sim PTX: 10300000 instructions simulated : ctaid=(1,0,0) tid=(63,0,0)
GPGPU-Sim PTX: 10400000 instructions simulated : ctaid=(52,0,0) tid=(63,0,0)
GPGPU-Sim PTX: 10500000 instructions simulated : ctaid=(42,0,0) tid=(63,0,0)
GPGPU-Sim uArch: cycles simulated: 63500  inst.: 10494624 (ipc=165.3) sim_rate=361883 (inst/sec) elapsed = 0:0:00:29 / Tue Apr  6 04:30:36 2021
GPGPU-Sim PTX: 10600000 instructions simulated : ctaid=(1,0,0) tid=(31,0,0)
GPGPU-Sim PTX: 10700000 instructions simulated : ctaid=(31,0,0) tid=(63,0,0)
GPGPU-Sim PTX: 10800000 instructions simulated : ctaid=(29,0,0) tid=(31,0,0)
GPGPU-Sim PTX: 10900000 instructions simulated : ctaid=(28,0,0) tid=(63,0,0)
GPGPU-Sim uArch: cycles simulated: 65500  inst.: 10900224 (ipc=166.4) sim_rate=363340 (inst/sec) elapsed = 0:0:00:30 / Tue Apr  6 04:30:37 2021
GPGPU-Sim PTX: 11000000 instructions simulated : ctaid=(28,0,0) tid=(63,0,0)
GPGPU-Sim PTX: 11100000 instructions simulated : ctaid=(49,0,0) tid=(31,0,0)
GPGPU-Sim uArch: cycles simulated: 66500  inst.: 11102688 (ipc=167.0) sim_rate=358151 (inst/sec) elapsed = 0:0:00:31 / Tue Apr  6 04:30:38 2021
GPGPU-Sim PTX: 11200000 instructions simulated : ctaid=(43,0,0) tid=(31,0,0)
GPGPU-Sim PTX: 11300000 instructions simulated : ctaid=(44,0,0) tid=(31,0,0)
GPGPU-Sim PTX: 11400000 instructions simulated : ctaid=(26,0,0) tid=(31,0,0)
GPGPU-Sim PTX: 11500000 instructions simulated : ctaid=(43,0,0) tid=(63,0,0)
GPGPU-Sim uArch: cycles simulated: 68500  inst.: 11506272 (ipc=168.0) sim_rate=359571 (inst/sec) elapsed = 0:0:00:32 / Tue Apr  6 04:30:39 2021
GPGPU-Sim PTX: 11600000 instructions simulated : ctaid=(62,0,0) tid=(63,0,0)
GPGPU-Sim PTX: 11700000 instructions simulated : ctaid=(42,0,0) tid=(31,0,0)
GPGPU-Sim PTX: 11800000 instructions simulated : ctaid=(48,0,0) tid=(63,0,0)
GPGPU-Sim PTX: 11900000 instructions simulated : ctaid=(31,0,0) tid=(63,0,0)
GPGPU-Sim uArch: cycles simulated: 70500  inst.: 11908672 (ipc=168.9) sim_rate=360868 (inst/sec) elapsed = 0:0:00:33 / Tue Apr  6 04:30:40 2021
GPGPU-Sim PTX: 12000000 instructions simulated : ctaid=(22,0,0) tid=(63,0,0)
GPGPU-Sim PTX: 12100000 instructions simulated : ctaid=(13,0,0) tid=(31,0,0)
GPGPU-Sim uArch: cycles simulated: 71500  inst.: 12109024 (ipc=169.4) sim_rate=356147 (inst/sec) elapsed = 0:0:00:34 / Tue Apr  6 04:30:41 2021
GPGPU-Sim PTX: 12200000 instructions simulated : ctaid=(17,0,0) tid=(63,0,0)
GPGPU-Sim PTX: 12300000 instructions simulated : ctaid=(36,0,0) tid=(63,0,0)
GPGPU-Sim uArch: cycles simulated: 72500  inst.: 12309632 (ipc=169.8) sim_rate=351703 (inst/sec) elapsed = 0:0:00:35 / Tue Apr  6 04:30:42 2021
GPGPU-Sim PTX: 12400000 instructions simulated : ctaid=(36,0,0) tid=(31,0,0)
GPGPU-Sim PTX: 12500000 instructions simulated : ctaid=(57,0,0) tid=(31,0,0)
GPGPU-Sim uArch: cycles simulated: 73500  inst.: 12511168 (ipc=170.2) sim_rate=347532 (inst/sec) elapsed = 0:0:00:36 / Tue Apr  6 04:30:43 2021
GPGPU-Sim PTX: 12600000 instructions simulated : ctaid=(23,0,0) tid=(31,0,0)
GPGPU-Sim uArch: cycles simulated: 74000  inst.: 12614336 (ipc=170.5) sim_rate=340928 (inst/sec) elapsed = 0:0:00:37 / Tue Apr  6 04:30:44 2021
GPGPU-Sim PTX: 12700000 instructions simulated : ctaid=(52,0,0) tid=(31,0,0)
GPGPU-Sim PTX: 12800000 instructions simulated : ctaid=(0,0,0) tid=(31,0,0)
GPGPU-Sim uArch: cycles simulated: 75000  inst.: 12816480 (ipc=170.9) sim_rate=337275 (inst/sec) elapsed = 0:0:00:38 / Tue Apr  6 04:30:45 2021
GPGPU-Sim PTX: 12900000 instructions simulated : ctaid=(19,0,0) tid=(63,0,0)
GPGPU-Sim PTX: 13000000 instructions simulated : ctaid=(48,0,0) tid=(63,0,0)
GPGPU-Sim PTX: 13100000 instructions simulated : ctaid=(4,0,0) tid=(31,0,0)
GPGPU-Sim uArch: cycles simulated: 76500  inst.: 13118304 (ipc=171.5) sim_rate=336366 (inst/sec) elapsed = 0:0:00:39 / Tue Apr  6 04:30:46 2021
GPGPU-Sim PTX: 13200000 instructions simulated : ctaid=(52,0,0) tid=(63,0,0)
GPGPU-Sim PTX: 13300000 instructions simulated : ctaid=(43,0,0) tid=(63,0,0)
GPGPU-Sim uArch: cycles simulated: 77500  inst.: 13320832 (ipc=171.9) sim_rate=333020 (inst/sec) elapsed = 0:0:00:40 / Tue Apr  6 04:30:47 2021
GPGPU-Sim PTX: 13400000 instructions simulated : ctaid=(54,0,0) tid=(63,0,0)
GPGPU-Sim PTX: 13500000 instructions simulated : ctaid=(17,0,0) tid=(31,0,0)
GPGPU-Sim uArch: cycles simulated: 78500  inst.: 13524192 (ipc=172.3) sim_rate=329858 (inst/sec) elapsed = 0:0:00:41 / Tue Apr  6 04:30:48 2021
GPGPU-Sim PTX: 13600000 instructions simulated : ctaid=(51,0,0) tid=(31,0,0)
GPGPU-Sim PTX: 13700000 instructions simulated : ctaid=(40,0,0) tid=(31,0,0)
GPGPU-Sim uArch: cycles simulated: 79500  inst.: 13725152 (ipc=172.6) sim_rate=326789 (inst/sec) elapsed = 0:0:00:42 / Tue Apr  6 04:30:49 2021
GPGPU-Sim PTX: 13800000 instructions simulated : ctaid=(40,0,0) tid=(63,0,0)
GPGPU-Sim PTX: 13900000 instructions simulated : ctaid=(46,0,0) tid=(63,0,0)
GPGPU-Sim PTX: 14000000 instructions simulated : ctaid=(15,0,0) tid=(31,0,0)
GPGPU-Sim uArch: cycles simulated: 81000  inst.: 14028064 (ipc=173.2) sim_rate=326234 (inst/sec) elapsed = 0:0:00:43 / Tue Apr  6 04:30:50 2021
GPGPU-Sim PTX: 14100000 instructions simulated : ctaid=(40,0,0) tid=(31,0,0)
GPGPU-Sim PTX: 14200000 instructions simulated : ctaid=(25,0,0) tid=(31,0,0)
GPGPU-Sim PTX: 14300000 instructions simulated : ctaid=(3,0,0) tid=(63,0,0)
GPGPU-Sim PTX: 14400000 instructions simulated : ctaid=(37,0,0) tid=(31,0,0)
GPGPU-Sim uArch: cycles simulated: 83000  inst.: 14429120 (ipc=173.8) sim_rate=327934 (inst/sec) elapsed = 0:0:00:44 / Tue Apr  6 04:30:51 2021
GPGPU-Sim PTX: 14500000 instructions simulated : ctaid=(19,0,0) tid=(63,0,0)
GPGPU-Sim PTX: 14600000 instructions simulated : ctaid=(21,0,0) tid=(31,0,0)
GPGPU-Sim PTX: 14700000 instructions simulated : ctaid=(44,0,0) tid=(63,0,0)
GPGPU-Sim PTX: 14800000 instructions simulated : ctaid=(42,0,0) tid=(63,0,0)
GPGPU-Sim uArch: cycles simulated: 85000  inst.: 14830752 (ipc=174.5) sim_rate=329572 (inst/sec) elapsed = 0:0:00:45 / Tue Apr  6 04:30:52 2021
GPGPU-Sim PTX: 14900000 instructions simulated : ctaid=(62,0,0) tid=(63,0,0)
GPGPU-Sim PTX: 15000000 instructions simulated : ctaid=(47,0,0) tid=(31,0,0)
GPGPU-Sim PTX: 15100000 instructions simulated : ctaid=(51,0,0) tid=(31,0,0)
GPGPU-Sim PTX: 15200000 instructions simulated : ctaid=(27,0,0) tid=(63,0,0)
GPGPU-Sim uArch: cycles simulated: 87000  inst.: 15236480 (ipc=175.1) sim_rate=331227 (inst/sec) elapsed = 0:0:00:46 / Tue Apr  6 04:30:53 2021
GPGPU-Sim PTX: 15300000 instructions simulated : ctaid=(61,0,0) tid=(31,0,0)
GPGPU-Sim PTX: 15400000 instructions simulated : ctaid=(60,0,0) tid=(63,0,0)
GPGPU-Sim PTX: 15500000 instructions simulated : ctaid=(62,0,0) tid=(31,0,0)
GPGPU-Sim PTX: 15600000 instructions simulated : ctaid=(5,0,0) tid=(63,0,0)
GPGPU-Sim PTX: 15700000 instructions simulated : ctaid=(5,0,0) tid=(63,0,0)
GPGPU-Sim uArch: cycles simulated: 89500  inst.: 15739360 (ipc=175.9) sim_rate=334880 (inst/sec) elapsed = 0:0:00:47 / Tue Apr  6 04:30:54 2021
GPGPU-Sim PTX: 15800000 instructions simulated : ctaid=(34,0,0) tid=(31,0,0)
GPGPU-Sim PTX: 15900000 instructions simulated : ctaid=(49,0,0) tid=(31,0,0)
GPGPU-Sim PTX: 16000000 instructions simulated : ctaid=(34,0,0) tid=(31,0,0)
GPGPU-Sim PTX: 16100000 instructions simulated : ctaid=(21,0,0) tid=(63,0,0)
GPGPU-Sim uArch: cycles simulated: 91500  inst.: 16142208 (ipc=176.4) sim_rate=336296 (inst/sec) elapsed = 0:0:00:48 / Tue Apr  6 04:30:55 2021
GPGPU-Sim PTX: 16200000 instructions simulated : ctaid=(8,0,0) tid=(63,0,0)
GPGPU-Sim PTX: 16300000 instructions simulated : ctaid=(44,0,0) tid=(63,0,0)
GPGPU-Sim PTX: 16400000 instructions simulated : ctaid=(13,0,0) tid=(31,0,0)
GPGPU-Sim PTX: 16500000 instructions simulated : ctaid=(55,0,0) tid=(63,0,0)
GPGPU-Sim uArch: cycles simulated: 93500  inst.: 16543904 (ipc=176.9) sim_rate=337630 (inst/sec) elapsed = 0:0:00:49 / Tue Apr  6 04:30:56 2021
GPGPU-Sim PTX: 16600000 instructions simulated : ctaid=(49,0,0) tid=(63,0,0)
GPGPU-Sim PTX: 16700000 instructions simulated : ctaid=(3,0,0) tid=(63,0,0)
GPGPU-Sim PTX: 16800000 instructions simulated : ctaid=(61,0,0) tid=(31,0,0)
GPGPU-Sim PTX: 16900000 instructions simulated : ctaid=(28,0,0) tid=(63,0,0)
GPGPU-Sim uArch: cycles simulated: 95500  inst.: 16947040 (ipc=177.5) sim_rate=338940 (inst/sec) elapsed = 0:0:00:50 / Tue Apr  6 04:30:57 2021
GPGPU-Sim PTX: 17000000 instructions simulated : ctaid=(40,0,0) tid=(31,0,0)
GPGPU-Sim PTX: 17100000 instructions simulated : ctaid=(11,0,0) tid=(31,0,0)
GPGPU-Sim PTX: 17200000 instructions simulated : ctaid=(21,0,0) tid=(63,0,0)
GPGPU-Sim PTX: 17300000 instructions simulated : ctaid=(3,0,0) tid=(31,0,0)
GPGPU-Sim uArch: cycles simulated: 97500  inst.: 17349952 (ipc=177.9) sim_rate=340195 (inst/sec) elapsed = 0:0:00:51 / Tue Apr  6 04:30:58 2021
GPGPU-Sim PTX: 17400000 instructions simulated : ctaid=(61,0,0) tid=(31,0,0)
GPGPU-Sim PTX: 17500000 instructions simulated : ctaid=(32,0,0) tid=(31,0,0)
GPGPU-Sim PTX: 17600000 instructions simulated : ctaid=(61,0,0) tid=(63,0,0)
GPGPU-Sim PTX: 17700000 instructions simulated : ctaid=(50,0,0) tid=(63,0,0)
GPGPU-Sim uArch: cycles simulated: 99500  inst.: 17759584 (ipc=178.5) sim_rate=341530 (inst/sec) elapsed = 0:0:00:52 / Tue Apr  6 04:30:59 2021
GPGPU-Sim PTX: 17800000 instructions simulated : ctaid=(33,0,0) tid=(31,0,0)
GPGPU-Sim PTX: 17900000 instructions simulated : ctaid=(7,0,0) tid=(31,0,0)
GPGPU-Sim PTX: 18000000 instructions simulated : ctaid=(40,0,0) tid=(31,0,0)
GPGPU-Sim PTX: 18100000 instructions simulated : ctaid=(57,0,0) tid=(31,0,0)
GPGPU-Sim PTX: 18200000 instructions simulated : ctaid=(23,0,0) tid=(31,0,0)
GPGPU-Sim uArch: cycles simulated: 102000  inst.: 18261056 (ipc=179.0) sim_rate=344548 (inst/sec) elapsed = 0:0:00:53 / Tue Apr  6 04:31:00 2021
GPGPU-Sim PTX: 18300000 instructions simulated : ctaid=(53,0,0) tid=(63,0,0)
GPGPU-Sim PTX: 18400000 instructions simulated : ctaid=(5,0,0) tid=(31,0,0)
GPGPU-Sim PTX: 18500000 instructions simulated : ctaid=(40,0,0) tid=(31,0,0)
GPGPU-Sim PTX: 18600000 instructions simulated : ctaid=(5,0,0) tid=(63,0,0)
GPGPU-Sim uArch: cycles simulated: 103500  inst.: 18564448 (ipc=179.4) sim_rate=343786 (inst/sec) elapsed = 0:0:00:54 / Tue Apr  6 04:31:01 2021
GPGPU-Sim PTX: 18700000 instructions simulated : ctaid=(15,0,0) tid=(31,0,0)
GPGPU-Sim PTX: 18800000 instructions simulated : ctaid=(31,0,0) tid=(63,0,0)
GPGPU-Sim PTX: 18900000 instructions simulated : ctaid=(45,0,0) tid=(63,0,0)
GPGPU-Sim PTX: 19000000 instructions simulated : ctaid=(1,0,0) tid=(31,0,0)
GPGPU-Sim PTX: 19100000 instructions simulated : ctaid=(16,0,0) tid=(63,0,0)
GPGPU-Sim uArch: cycles simulated: 106000  inst.: 19070112 (ipc=179.9) sim_rate=346729 (inst/sec) elapsed = 0:0:00:55 / Tue Apr  6 04:31:02 2021
GPGPU-Sim PTX: 19200000 instructions simulated : ctaid=(12,0,0) tid=(31,0,0)
GPGPU-Sim PTX: 19300000 instructions simulated : ctaid=(16,0,0) tid=(31,0,0)
GPGPU-Sim PTX: 19400000 instructions simulated : ctaid=(36,0,0) tid=(31,0,0)
GPGPU-Sim PTX: 19500000 instructions simulated : ctaid=(36,0,0) tid=(31,0,0)
GPGPU-Sim uArch: cycles simulated: 108000  inst.: 19470464 (ipc=180.3) sim_rate=347686 (inst/sec) elapsed = 0:0:00:56 / Tue Apr  6 04:31:03 2021
GPGPU-Sim PTX: 19600000 instructions simulated : ctaid=(32,0,0) tid=(31,0,0)
GPGPU-Sim PTX: 19700000 instructions simulated : ctaid=(24,0,0) tid=(31,0,0)
GPGPU-Sim PTX: 19800000 instructions simulated : ctaid=(52,0,0) tid=(31,0,0)
GPGPU-Sim PTX: 19900000 instructions simulated : ctaid=(22,0,0) tid=(31,0,0)
GPGPU-Sim uArch: cycles simulated: 110000  inst.: 19873056 (ipc=180.7) sim_rate=348650 (inst/sec) elapsed = 0:0:00:57 / Tue Apr  6 04:31:04 2021
GPGPU-Sim PTX: 20000000 instructions simulated : ctaid=(17,0,0) tid=(63,0,0)
GPGPU-Sim PTX: 20100000 instructions simulated : ctaid=(43,0,0) tid=(63,0,0)
GPGPU-Sim PTX: 20200000 instructions simulated : ctaid=(17,0,0) tid=(63,0,0)
GPGPU-Sim PTX: 20300000 instructions simulated : ctaid=(4,0,0) tid=(31,0,0)
GPGPU-Sim uArch: cycles simulated: 112000  inst.: 20273504 (ipc=181.0) sim_rate=349543 (inst/sec) elapsed = 0:0:00:58 / Tue Apr  6 04:31:05 2021
GPGPU-Sim PTX: 20400000 instructions simulated : ctaid=(10,0,0) tid=(31,0,0)
GPGPU-Sim PTX: 20500000 instructions simulated : ctaid=(57,0,0) tid=(63,0,0)
GPGPU-Sim PTX: 20600000 instructions simulated : ctaid=(38,0,0) tid=(63,0,0)
GPGPU-Sim PTX: 20700000 instructions simulated : ctaid=(44,0,0) tid=(31,0,0)
GPGPU-Sim PTX: 20800000 instructions simulated : ctaid=(45,0,0) tid=(63,0,0)
GPGPU-Sim uArch: cycles simulated: 114500  inst.: 20776704 (ipc=181.5) sim_rate=352147 (inst/sec) elapsed = 0:0:00:59 / Tue Apr  6 04:31:06 2021
GPGPU-Sim PTX: 20900000 instructions simulated : ctaid=(10,0,0) tid=(63,0,0)
GPGPU-Sim PTX: 21000000 instructions simulated : ctaid=(37,0,0) tid=(31,0,0)
GPGPU-Sim PTX: 21100000 instructions simulated : ctaid=(0,0,0) tid=(31,0,0)
GPGPU-Sim PTX: 21200000 instructions simulated : ctaid=(49,0,0) tid=(31,0,0)
GPGPU-Sim uArch: cycles simulated: 116500  inst.: 21177536 (ipc=181.8) sim_rate=352958 (inst/sec) elapsed = 0:0:01:00 / Tue Apr  6 04:31:07 2021
GPGPU-Sim PTX: 21300000 instructions simulated : ctaid=(53,0,0) tid=(31,0,0)
GPGPU-Sim PTX: 21400000 instructions simulated : ctaid=(23,0,0) tid=(31,0,0)
GPGPU-Sim PTX: 21500000 instructions simulated : ctaid=(11,0,0) tid=(31,0,0)
GPGPU-Sim PTX: 21600000 instructions simulated : ctaid=(1,0,0) tid=(31,0,0)
GPGPU-Sim PTX: 21700000 instructions simulated : ctaid=(13,0,0) tid=(31,0,0)
GPGPU-Sim uArch: cycles simulated: 119000  inst.: 21680192 (ipc=182.2) sim_rate=355412 (inst/sec) elapsed = 0:0:01:01 / Tue Apr  6 04:31:08 2021
GPGPU-Sim PTX: 21800000 instructions simulated : ctaid=(6,0,0) tid=(63,0,0)
GPGPU-Sim PTX: 21900000 instructions simulated : ctaid=(57,0,0) tid=(31,0,0)
GPGPU-Sim PTX: 22000000 instructions simulated : ctaid=(25,0,0) tid=(31,0,0)
[...]
GPGPU-Sim uArch: cycles simulated: 1602495  inst.: 327313728 (ipc=226.1) sim_rate=298099 (inst/sec) elapsed = 0:0:18:18 / Tue Apr  6 04:48:25 2021
GPGPU-Sim PTX: 327800000 instructions simulated : ctaid=(41,0,0) tid=(63,0,0)
GPGPU-Sim PTX: 327900000 instructions simulated : ctaid=(40,0,0) tid=(63,0,0)
GPGPU-Sim PTX: 328000000 instructions simulated : ctaid=(51,0,0) tid=(31,0,0)
GPGPU-Sim PTX: 328100000 instructions simulated : ctaid=(16,0,0) tid=(31,0,0)
GPGPU-Sim uArch: cycles simulated: 1603995  inst.: 327684608 (ipc=226.2) sim_rate=298166 (inst/sec) elapsed = 0:0:18:19 / Tue Apr  6 04:48:26 2021
GPGPU-Sim PTX: 328200000 instructions simulated : ctaid=(5,0,0) tid=(31,0,0)
GPGPU-Sim PTX: 328300000 instructions simulated : ctaid=(46,0,0) tid=(31,0,0)
GPGPU-Sim PTX: 328400000 instructions simulated : ctaid=(45,0,0) tid=(31,0,0)
GPGPU-Sim PTX: 328500000 instructions simulated : ctaid=(58,0,0) tid=(63,0,0)
GPGPU-Sim uArch: cycles simulated: 1605495  inst.: 328056960 (ipc=226.3) sim_rate=298233 (inst/sec) elapsed = 0:0:18:20 / Tue Apr  6 04:48:27 2021
GPGPU-Sim PTX: 328600000 instructions simulated : ctaid=(51,0,0) tid=(31,0,0)
GPGPU-Sim PTX: 328700000 instructions simulated : ctaid=(24,0,0) tid=(31,0,0)
GPGPU-Sim PTX: 328800000 instructions simulated : ctaid=(2,0,0) tid=(63,0,0)
GPGPU-Sim PTX: 328900000 instructions simulated : ctaid=(57,0,0) tid=(63,0,0)
GPGPU-Sim PTX: 329000000 instructions simulated : ctaid=(4,0,0) tid=(31,0,0)
GPGPU-Sim uArch: cycles simulated: 1607495  inst.: 328549888 (ipc=226.4) sim_rate=298410 (inst/sec) elapsed = 0:0:18:21 / Tue Apr  6 04:48:28 2021
GPGPU-Sim PTX: 329100000 instructions simulated : ctaid=(36,0,0) tid=(63,0,0)
GPGPU-Sim PTX: 329200000 instructions simulated : ctaid=(12,0,0) tid=(63,0,0)
GPGPU-Sim PTX: 329300000 instructions simulated : ctaid=(62,0,0) tid=(31,0,0)
GPGPU-Sim uArch: cycles simulated: 1608995  inst.: 328914048 (ipc=226.5) sim_rate=298470 (inst/sec) elapsed = 0:0:18:22 / Tue Apr  6 04:48:29 2021
GPGPU-Sim PTX: 329400000 instructions simulated : ctaid=(50,0,0) tid=(63,0,0)
GPGPU-Sim PTX: 329500000 instructions simulated : ctaid=(42,0,0) tid=(63,0,0)
GPGPU-Sim PTX: 329600000 instructions simulated : ctaid=(53,0,0) tid=(31,0,0)
GPGPU-Sim PTX: 329700000 instructions simulated : ctaid=(33,0,0) tid=(31,0,0)
GPGPU-Sim uArch: cycles simulated: 1610495  inst.: 329287328 (ipc=226.5) sim_rate=298537 (inst/sec) elapsed = 0:0:18:23 / Tue Apr  6 04:48:30 2021
GPGPU-Sim PTX: 329800000 instructions simulated : ctaid=(59,0,0) tid=(31,0,0)
GPGPU-Sim PTX: 329900000 instructions simulated : ctaid=(42,0,0) tid=(63,0,0)
GPGPU-Sim PTX: 330000000 instructions simulated : ctaid=(45,0,0) tid=(63,0,0)
GPGPU-Sim PTX: 330100000 instructions simulated : ctaid=(36,0,0) tid=(31,0,0)
GPGPU-Sim uArch: cycles simulated: 1611995  inst.: 329655968 (ipc=226.6) sim_rate=298601 (inst/sec) elapsed = 0:0:18:24 / Tue Apr  6 04:48:31 2021
GPGPU-Sim PTX: 330200000 instructions simulated : ctaid=(31,0,0) tid=(31,0,0)
GPGPU-Sim PTX: 330300000 instructions simulated : ctaid=(5,0,0) tid=(31,0,0)
GPGPU-Sim PTX: 330400000 instructions simulated : ctaid=(38,0,0) tid=(31,0,0)
GPGPU-Sim PTX: 330500000 instructions simulated : ctaid=(22,0,0) tid=(63,0,0)
GPGPU-Sim PTX: 330600000 instructions simulated : ctaid=(52,0,0) tid=(63,0,0)
GPGPU-Sim uArch: cycles simulated: 1613995  inst.: 330148512 (ipc=226.7) sim_rate=298776 (inst/sec) elapsed = 0:0:18:25 / Tue Apr  6 04:48:32 2021
GPGPU-Sim PTX: 330700000 instructions simulated : ctaid=(20,0,0) tid=(31,0,0)
GPGPU-Sim PTX: 330800000 instructions simulated : ctaid=(62,0,0) tid=(63,0,0)
GPGPU-Sim PTX: 330900000 instructions simulated : ctaid=(6,0,0) tid=(31,0,0)
GPGPU-Sim uArch: cycles simulated: 1615495  inst.: 330520448 (ipc=226.8) sim_rate=298843 (inst/sec) elapsed = 0:0:18:26 / Tue Apr  6 04:48:33 2021
GPGPU-Sim PTX: 331000000 instructions simulated : ctaid=(16,0,0) tid=(63,0,0)
GPGPU-Sim PTX: 331100000 instructions simulated : ctaid=(27,0,0) tid=(31,0,0)
GPGPU-Sim PTX: 331200000 instructions simulated : ctaid=(61,0,0) tid=(31,0,0)
GPGPU-Sim PTX: 331300000 instructions simulated : ctaid=(40,0,0) tid=(31,0,0)
GPGPU-Sim uArch: cycles simulated: 1616995  inst.: 330891584 (ipc=226.9) sim_rate=298908 (inst/sec) elapsed = 0:0:18:27 / Tue Apr  6 04:48:34 2021
GPGPU-Sim PTX: 331400000 instructions simulated : ctaid=(56,0,0) tid=(63,0,0)
GPGPU-Sim PTX: 331500000 instructions simulated : ctaid=(37,0,0) tid=(31,0,0)
GPGPU-Sim PTX: 331600000 instructions simulated : ctaid=(32,0,0) tid=(31,0,0)
GPGPU-Sim PTX: 331700000 instructions simulated : ctaid=(46,0,0) tid=(63,0,0)
GPGPU-Sim uArch: cycles simulated: 1618495  inst.: 331265888 (ipc=226.9) sim_rate=298976 (inst/sec) elapsed = 0:0:18:28 / Tue Apr  6 04:48:35 2021
GPGPU-Sim PTX: 331800000 instructions simulated : ctaid=(25,0,0) tid=(31,0,0)
GPGPU-Sim PTX: 331900000 instructions simulated : ctaid=(60,0,0) tid=(63,0,0)
GPGPU-Sim PTX: 332000000 instructions simulated : ctaid=(26,0,0) tid=(63,0,0)
GPGPU-Sim PTX: 332100000 instructions simulated : ctaid=(47,0,0) tid=(63,0,0)
GPGPU-Sim PTX: 332200000 instructions simulated : ctaid=(17,0,0) tid=(31,0,0)
GPGPU-Sim uArch: cycles simulated: 1620495  inst.: 331753088 (ipc=227.0) sim_rate=299146 (inst/sec) elapsed = 0:0:18:29 / Tue Apr  6 04:48:36 2021
GPGPU-Sim PTX: 332300000 instructions simulated : ctaid=(54,0,0) tid=(63,0,0)
GPGPU-Sim PTX: 332400000 instructions simulated : ctaid=(40,0,0) tid=(63,0,0)
GPGPU-Sim PTX: 332500000 instructions simulated : ctaid=(30,0,0) tid=(31,0,0)
GPGPU-Sim uArch: cycles simulated: 1621995  inst.: 332128096 (ipc=227.1) sim_rate=299214 (inst/sec) elapsed = 0:0:18:30 / Tue Apr  6 04:48:37 2021
GPGPU-Sim PTX: 332600000 instructions simulated : ctaid=(6,0,0) tid=(31,0,0)
GPGPU-Sim PTX: 332700000 instructions simulated : ctaid=(58,0,0) tid=(63,0,0)
GPGPU-Sim PTX: 332800000 instructions simulated : ctaid=(22,0,0) tid=(31,0,0)
GPGPU-Sim PTX: 332900000 instructions simulated : ctaid=(3,0,0) tid=(31,0,0)
GPGPU-Sim uArch: cycles simulated: 1623495  inst.: 332500576 (ipc=227.2) sim_rate=299280 (inst/sec) elapsed = 0:0:18:31 / Tue Apr  6 04:48:38 2021
GPGPU-Sim PTX: 333000000 instructions simulated : ctaid=(47,0,0) tid=(31,0,0)
GPGPU-Sim PTX: 333100000 instructions simulated : ctaid=(22,0,0) tid=(31,0,0)
GPGPU-Sim PTX: 333200000 instructions simulated : ctaid=(5,0,0) tid=(31,0,0)
GPGPU-Sim PTX: 333300000 instructions simulated : ctaid=(43,0,0) tid=(31,0,0)
GPGPU-Sim PTX: 333400000 instructions simulated : ctaid=(27,0,0) tid=(31,0,0)
GPGPU-Sim uArch: cycles simulated: 1625495  inst.: 332992608 (ipc=227.3) sim_rate=299453 (inst/sec) elapsed = 0:0:18:32 / Tue Apr  6 04:48:39 2021
GPGPU-Sim PTX: 333500000 instructions simulated : ctaid=(54,0,0) tid=(63,0,0)
GPGPU-Sim PTX: 333600000 instructions simulated : ctaid=(1,0,0) tid=(31,0,0)
GPGPU-Sim PTX: 333700000 instructions simulated : ctaid=(10,0,0) tid=(31,0,0)
GPGPU-Sim PTX: 333800000 instructions simulated : ctaid=(13,0,0) tid=(63,0,0)
GPGPU-Sim uArch: cycles simulated: 1626995  inst.: 333367712 (ipc=227.4) sim_rate=299521 (inst/sec) elapsed = 0:0:18:33 / Tue Apr  6 04:48:40 2021
GPGPU-Sim PTX: 333900000 instructions simulated : ctaid=(9,0,0) tid=(31,0,0)
GPGPU-Sim PTX: 334000000 instructions simulated : ctaid=(4,0,0) tid=(31,0,0)
GPGPU-Sim PTX: 334100000 instructions simulated : ctaid=(51,0,0) tid=(63,0,0)
GPGPU-Sim PTX: 334200000 instructions simulated : ctaid=(16,0,0) tid=(63,0,0)
GPGPU-Sim uArch: cycles simulated: 1628495  inst.: 333736480 (ipc=227.4) sim_rate=299583 (inst/sec) elapsed = 0:0:18:34 / Tue Apr  6 04:48:41 2021
GPGPU-Sim PTX: 334300000 instructions simulated : ctaid=(52,0,0) tid=(63,0,0)
GPGPU-Sim PTX: 334400000 instructions simulated : ctaid=(26,0,0) tid=(31,0,0)
GPGPU-Sim PTX: 334500000 instructions simulated : ctaid=(60,0,0) tid=(31,0,0)
GPGPU-Sim PTX: 334600000 instructions simulated : ctaid=(43,0,0) tid=(63,0,0)
GPGPU-Sim uArch: cycles simulated: 1630495  inst.: 334231296 (ipc=227.5) sim_rate=299759 (inst/sec) elapsed = 0:0:18:35 / Tue Apr  6 04:48:42 2021
GPGPU-Sim PTX: 334700000 instructions simulated : ctaid=(19,0,0) tid=(31,0,0)
GPGPU-Sim PTX: 334800000 instructions simulated : ctaid=(15,0,0) tid=(31,0,0)
GPGPU-Sim PTX: 334900000 instructions simulated : ctaid=(36,0,0) tid=(63,0,0)
GPGPU-Sim PTX: 335000000 instructions simulated : ctaid=(16,0,0) tid=(63,0,0)
GPGPU-Sim uArch: cycles simulated: 1631995  inst.: 334604096 (ipc=227.6) sim_rate=299824 (inst/sec) elapsed = 0:0:18:36 / Tue Apr  6 04:48:43 2021
GPGPU-Sim PTX: 335100000 instructions simulated : ctaid=(35,0,0) tid=(63,0,0)
GPGPU-Sim PTX: 335200000 instructions simulated : ctaid=(47,0,0) tid=(63,0,0)
GPGPU-Sim PTX: 335300000 instructions simulated : ctaid=(38,0,0) tid=(63,0,0)
GPGPU-Sim PTX: 335400000 instructions simulated : ctaid=(5,0,0) tid=(63,0,0)
GPGPU-Sim uArch: cycles simulated: 1633495  inst.: 334966208 (ipc=227.6) sim_rate=299880 (inst/sec) elapsed = 0:0:18:37 / Tue Apr  6 04:48:44 2021
GPGPU-Sim PTX: 335500000 instructions simulated : ctaid=(57,0,0) tid=(31,0,0)
GPGPU-Sim PTX: 335600000 instructions simulated : ctaid=(62,0,0) tid=(31,0,0)
GPGPU-Sim PTX: 335700000 instructions simulated : ctaid=(28,0,0) tid=(31,0,0)
GPGPU-Sim PTX: 335800000 instructions simulated : ctaid=(52,0,0) tid=(31,0,0)
GPGPU-Sim uArch: cycles simulated: 1634995  inst.: 335336960 (ipc=227.7) sim_rate=299943 (inst/sec) elapsed = 0:0:18:38 / Tue Apr  6 04:48:45 2021
GPGPU-Sim PTX: 335900000 instructions simulated : ctaid=(47,0,0) tid=(31,0,0)
GPGPU-Sim PTX: 336000000 instructions simulated : ctaid=(54,0,0) tid=(63,0,0)
GPGPU-Sim PTX: 336100000 instructions simulated : ctaid=(7,0,0) tid=(31,0,0)
GPGPU-Sim PTX: 336200000 instructions simulated : ctaid=(37,0,0) tid=(63,0,0)
GPGPU-Sim uArch: cycles simulated: 1636995  inst.: 335832192 (ipc=227.8) sim_rate=300118 (inst/sec) elapsed = 0:0:18:39 / Tue Apr  6 04:48:46 2021
GPGPU-Sim PTX: 336300000 instructions simulated : ctaid=(51,0,0) tid=(31,0,0)
GPGPU-Sim PTX: 336400000 instructions simulated : ctaid=(23,0,0) tid=(63,0,0)
GPGPU-Sim PTX: 336500000 instructions simulated : ctaid=(56,0,0) tid=(31,0,0)
GPGPU-Sim PTX: 336600000 instructions simulated : ctaid=(13,0,0) tid=(63,0,0)
GPGPU-Sim uArch: cycles simulated: 1638495  inst.: 336201792 (ipc=227.9) sim_rate=300180 (inst/sec) elapsed = 0:0:18:40 / Tue Apr  6 04:48:47 2021
GPGPU-Sim PTX: 336700000 instructions simulated : ctaid=(20,0,0) tid=(31,0,0)
GPGPU-Sim PTX: 336800000 instructions simulated : ctaid=(56,0,0) tid=(31,0,0)
GPGPU-Sim PTX: 336900000 instructions simulated : ctaid=(37,0,0) tid=(63,0,0)
GPGPU-Sim PTX: 337000000 instructions simulated : ctaid=(14,0,0) tid=(31,0,0)
GPGPU-Sim uArch: cycles simulated: 1639995  inst.: 336571456 (ipc=227.9) sim_rate=300242 (inst/sec) elapsed = 0:0:18:41 / Tue Apr  6 04:48:48 2021
GPGPU-Sim PTX: 337100000 instructions simulated : ctaid=(14,0,0) tid=(31,0,0)
GPGPU-Sim PTX: 337200000 instructions simulated : ctaid=(6,0,0) tid=(63,0,0)
GPGPU-Sim PTX: 337300000 instructions simulated : ctaid=(36,0,0) tid=(63,0,0)
GPGPU-Sim PTX: 337400000 instructions simulated : ctaid=(51,0,0) tid=(31,0,0)
GPGPU-Sim PTX: 337500000 instructions simulated : ctaid=(61,0,0) tid=(31,0,0)
GPGPU-Sim uArch: cycles simulated: 1641995  inst.: 337060224 (ipc=228.0) sim_rate=300410 (inst/sec) elapsed = 0:0:18:42 / Tue Apr  6 04:48:49 2021
GPGPU-Sim PTX: 337600000 instructions simulated : ctaid=(10,0,0) tid=(31,0,0)
GPGPU-Sim PTX: 337700000 instructions simulated : ctaid=(39,0,0) tid=(31,0,0)
GPGPU-Sim PTX: 337800000 instructions simulated : ctaid=(49,0,0) tid=(63,0,0)
GPGPU-Sim PTX: 337900000 instructions simulated : ctaid=(58,0,0) tid=(31,0,0)
GPGPU-Sim uArch: cycles simulated: 1643495  inst.: 337433536 (ipc=228.1) sim_rate=300475 (inst/sec) elapsed = 0:0:18:43 / Tue Apr  6 04:48:50 2021
GPGPU-Sim PTX: 338000000 instructions simulated : ctaid=(53,0,0) tid=(63,0,0)
GPGPU-Sim PTX: 338100000 instructions simulated : ctaid=(47,0,0) tid=(31,0,0)
GPGPU-Sim PTX: 338200000 instructions simulated : ctaid=(50,0,0) tid=(31,0,0)
GPGPU-Sim uArch: cycles simulated: 1644995  inst.: 337797056 (ipc=228.1) sim_rate=300531 (inst/sec) elapsed = 0:0:18:44 / Tue Apr  6 04:48:51 2021
GPGPU-Sim PTX: 338300000 instructions simulated : ctaid=(61,0,0) tid=(31,0,0)
GPGPU-Sim PTX: 338400000 instructions simulated : ctaid=(22,0,0) tid=(63,0,0)
GPGPU-Sim PTX: 338500000 instructions simulated : ctaid=(2,0,0) tid=(63,0,0)
GPGPU-Sim PTX: 338600000 instructions simulated : ctaid=(8,0,0) tid=(31,0,0)
GPGPU-Sim PTX: 338700000 instructions simulated : ctaid=(38,0,0) tid=(31,0,0)
GPGPU-Sim uArch: cycles simulated: 1646995  inst.: 338293024 (ipc=228.2) sim_rate=300704 (inst/sec) elapsed = 0:0:18:45 / Tue Apr  6 04:48:52 2021
GPGPU-Sim PTX: 338800000 instructions simulated : ctaid=(61,0,0) tid=(31,0,0)
GPGPU-Sim PTX: 338900000 instructions simulated : ctaid=(44,0,0) tid=(63,0,0)
GPGPU-Sim PTX: 339000000 instructions simulated : ctaid=(54,0,0) tid=(31,0,0)
GPGPU-Sim PTX: 339100000 instructions simulated : ctaid=(13,0,0) tid=(63,0,0)
GPGPU-Sim uArch: cycles simulated: 1648495  inst.: 338661984 (ipc=228.3) sim_rate=300765 (inst/sec) elapsed = 0:0:18:46 / Tue Apr  6 04:48:53 2021
GPGPU-Sim PTX: 339200000 instructions simulated : ctaid=(19,0,0) tid=(63,0,0)
GPGPU-Sim PTX: 339300000 instructions simulated : ctaid=(36,0,0) tid=(31,0,0)
GPGPU-Sim PTX: 339400000 instructions simulated : ctaid=(14,0,0) tid=(63,0,0)
GPGPU-Sim uArch: cycles simulated: 1649995  inst.: 339023360 (ipc=228.3) sim_rate=300819 (inst/sec) elapsed = 0:0:18:47 / Tue Apr  6 04:48:54 2021
GPGPU-Sim PTX: 339500000 instructions simulated : ctaid=(37,0,0) tid=(63,0,0)
GPGPU-Sim PTX: 339600000 instructions simulated : ctaid=(30,0,0) tid=(63,0,0)
GPGPU-Sim PTX: 339700000 instructions simulated : ctaid=(49,0,0) tid=(31,0,0)
GPGPU-Sim PTX: 339800000 instructions simulated : ctaid=(34,0,0) tid=(31,0,0)
GPGPU-Sim PTX: 339900000 instructions simulated : ctaid=(19,0,0) tid=(63,0,0)
GPGPU-Sim uArch: cycles simulated: 1651995  inst.: 339521696 (ipc=228.4) sim_rate=300994 (inst/sec) elapsed = 0:0:18:48 / Tue Apr  6 04:48:55 2021
GPGPU-Sim PTX: 340000000 instructions simulated : ctaid=(21,0,0) tid=(31,0,0)
GPGPU-Sim PTX: 340100000 instructions simulated : ctaid=(24,0,0) tid=(31,0,0)
GPGPU-Sim PTX: 340200000 instructions simulated : ctaid=(35,0,0) tid=(31,0,0)
GPGPU-Sim PTX: 340300000 instructions simulated : ctaid=(43,0,0) tid=(31,0,0)
GPGPU-Sim uArch: cycles simulated: 1653495  inst.: 339889120 (ipc=228.5) sim_rate=301053 (inst/sec) elapsed = 0:0:18:49 / Tue Apr  6 04:48:56 2021
GPGPU-Sim PTX: 340400000 instructions simulated : ctaid=(24,0,0) tid=(63,0,0)
GPGPU-Sim PTX: 340500000 instructions simulated : ctaid=(10,0,0) tid=(31,0,0)
GPGPU-Sim PTX: 340600000 instructions simulated : ctaid=(45,0,0) tid=(31,0,0)
GPGPU-Sim PTX: 340700000 instructions simulated : ctaid=(54,0,0) tid=(63,0,0)
GPGPU-Sim uArch: cycles simulated: 1654995  inst.: 340252672 (ipc=228.5) sim_rate=301108 (inst/sec) elapsed = 0:0:18:50 / Tue Apr  6 04:48:57 2021
GPGPU-Sim PTX: 340800000 instructions simulated : ctaid=(5,0,0) tid=(31,0,0)
GPGPU-Sim PTX: 340900000 instructions simulated : ctaid=(62,0,0) tid=(63,0,0)
GPGPU-Sim PTX: 341000000 instructions simulated : ctaid=(62,0,0) tid=(31,0,0)
GPGPU-Sim PTX: 341100000 instructions simulated : ctaid=(30,0,0) tid=(31,0,0)
GPGPU-Sim uArch: cycles simulated: 1656495  inst.: 340625824 (ipc=228.6) sim_rate=301172 (inst/sec) elapsed = 0:0:18:51 / Tue Apr  6 04:48:58 2021
GPGPU-Sim PTX: 341200000 instructions simulated : ctaid=(16,0,0) tid=(31,0,0)
GPGPU-Sim PTX: 341300000 instructions simulated : ctaid=(63,0,0) tid=(31,0,0)
GPGPU-Sim PTX: 341400000 instructions simulated : ctaid=(26,0,0) tid=(63,0,0)
GPGPU-Sim PTX: 341500000 instructions simulated : ctaid=(23,0,0) tid=(31,0,0)
GPGPU-Sim uArch: cycles simulated: 1658495  inst.: 341111456 (ipc=228.6) sim_rate=301335 (inst/sec) elapsed = 0:0:18:52 / Tue Apr  6 04:48:59 2021
GPGPU-Sim PTX: 341600000 instructions simulated : ctaid=(3,0,0) tid=(63,0,0)
GPGPU-Sim PTX: 341700000 instructions simulated : ctaid=(9,0,0) tid=(31,0,0)
GPGPU-Sim PTX: 341800000 instructions simulated : ctaid=(46,0,0) tid=(63,0,0)
GPGPU-Sim PTX: 341900000 instructions simulated : ctaid=(50,0,0) tid=(63,0,0)
GPGPU-Sim uArch: cycles simulated: 1659995  inst.: 341481664 (ipc=228.7) sim_rate=301395 (inst/sec) elapsed = 0:0:18:53 / Tue Apr  6 04:49:00 2021
GPGPU-Sim PTX: 342000000 instructions simulated : ctaid=(32,0,0) tid=(31,0,0)
GPGPU-Sim PTX: 342100000 instructions simulated : ctaid=(62,0,0) tid=(31,0,0)
GPGPU-Sim PTX: 342200000 instructions simulated : ctaid=(4,0,0) tid=(31,0,0)
GPGPU-Sim PTX: 342300000 instructions simulated : ctaid=(1,0,0) tid=(63,0,0)
GPGPU-Sim uArch: cycles simulated: 1661495  inst.: 341850208 (ipc=228.8) sim_rate=301455 (inst/sec) elapsed = 0:0:18:54 / Tue Apr  6 04:49:01 2021
GPGPU-Sim PTX: 342400000 instructions simulated : ctaid=(5,0,0) tid=(31,0,0)
GPGPU-Sim PTX: 342500000 instructions simulated : ctaid=(47,0,0) tid=(63,0,0)
GPGPU-Sim PTX: 342600000 instructions simulated : ctaid=(50,0,0) tid=(63,0,0)
GPGPU-Sim PTX: 342700000 instructions simulated : ctaid=(27,0,0) tid=(63,0,0)
GPGPU-Sim PTX: 342800000 instructions simulated : ctaid=(20,0,0) tid=(63,0,0)
GPGPU-Sim uArch: cycles simulated: 1663495  inst.: 342346400 (ipc=228.8) sim_rate=301626 (inst/sec) elapsed = 0:0:18:55 / Tue Apr  6 04:49:02 2021
GPGPU-Sim PTX: 342900000 instructions simulated : ctaid=(18,0,0) tid=(63,0,0)
GPGPU-Sim PTX: 343000000 instructions simulated : ctaid=(14,0,0) tid=(63,0,0)
GPGPU-Sim PTX: 343100000 instructions simulated : ctaid=(43,0,0) tid=(31,0,0)
GPGPU-Sim uArch: cycles simulated: 1664995  inst.: 342716352 (ipc=228.9) sim_rate=301686 (inst/sec) elapsed = 0:0:18:56 / Tue Apr  6 04:49:03 2021
GPGPU-Sim PTX: 343200000 instructions simulated : ctaid=(32,0,0) tid=(63,0,0)
GPGPU-Sim PTX: 343300000 instructions simulated : ctaid=(40,0,0) tid=(63,0,0)
GPGPU-Sim PTX: 343400000 instructions simulated : ctaid=(3,0,0) tid=(31,0,0)
GPGPU-Sim uArch: cycles simulated: 1665995  inst.: 342961152 (ipc=228.9) sim_rate=301636 (inst/sec) elapsed = 0:0:18:57 / Tue Apr  6 04:49:04 2021
GPGPU-Sim PTX: 343500000 instructions simulated : ctaid=(35,0,0) tid=(63,0,0)
GPGPU-Sim PTX: 343600000 instructions simulated : ctaid=(13,0,0) tid=(31,0,0)
GPGPU-Sim PTX: 343700000 instructions simulated : ctaid=(37,0,0) tid=(31,0,0)
GPGPU-Sim PTX: 343800000 instructions simulated : ctaid=(30,0,0) tid=(31,0,0)
GPGPU-Sim uArch: cycles simulated: 1667495  inst.: 343334656 (ipc=229.0) sim_rate=301700 (inst/sec) elapsed = 0:0:18:58 / Tue Apr  6 04:49:05 2021
GPGPU-Sim PTX: 343900000 instructions simulated : ctaid=(59,0,0) tid=(63,0,0)
GPGPU-Sim PTX: 344000000 instructions simulated : ctaid=(31,0,0) tid=(63,0,0)
GPGPU-Sim PTX: 344100000 instructions simulated : ctaid=(57,0,0) tid=(31,0,0)
GPGPU-Sim uArch: cycles simulated: 1668995  inst.: 343699072 (ipc=229.0) sim_rate=301755 (inst/sec) elapsed = 0:0:18:59 / Tue Apr  6 04:49:06 2021
GPGPU-Sim PTX: 344200000 instructions simulated : ctaid=(33,0,0) tid=(31,0,0)
GPGPU-Sim PTX: 344300000 instructions simulated : ctaid=(9,0,0) tid=(31,0,0)
GPGPU-Sim PTX: 344400000 instructions simulated : ctaid=(40,0,0) tid=(31,0,0)
GPGPU-Sim uArch: cycles simulated: 1669995  inst.: 343949952 (ipc=229.1) sim_rate=301710 (inst/sec) elapsed = 0:0:19:00 / Tue Apr  6 04:49:07 2021
GPGPU-Sim PTX: 344500000 instructions simulated : ctaid=(25,0,0) tid=(31,0,0)
GPGPU-Sim PTX: 344600000 instructions simulated : ctaid=(22,0,0) tid=(63,0,0)
GPGPU-Sim PTX: 344700000 instructions simulated : ctaid=(55,0,0) tid=(63,0,0)
GPGPU-Sim uArch: cycles simulated: 1671495  inst.: 344312928 (ipc=229.1) sim_rate=301764 (inst/sec) elapsed = 0:0:19:01 / Tue Apr  6 04:49:08 2021
GPGPU-Sim PTX: 344800000 instructions simulated : ctaid=(43,0,0) tid=(63,0,0)
GPGPU-Sim PTX: 344900000 instructions simulated : ctaid=(57,0,0) tid=(31,0,0)
GPGPU-Sim PTX: 345000000 instructions simulated : ctaid=(21,0,0) tid=(31,0,0)
