

        *** GPGPU-Sim Simulator Version 3.2.2  [build 0] ***


GPGPU-Sim PTX: simulation mode 0 (can change with PTX_SIM_MODE_FUNC environment variable:
               1=functional simulation only, 0=detailed performance simulator)
GPGPU-Sim: Configuration options:

-network_mode                           1 # Interconnection network mode
-inter_config_file   config_fermi_islip.icnt # Interconnection network config file
-gpgpu_ptx_use_cuobjdump                    1 # Use cuobjdump to extract ptx and sass from binaries
-gpgpu_experimental_lib_support                    0 # Try to extract code from cuda libraries [Broken because of unknown cudaGetExportTable]
-gpgpu_ptx_convert_to_ptxplus                    0 # Convert SASS (native ISA) to ptxplus and run ptxplus
-gpgpu_ptx_force_max_capability                   20 # Force maximum compute capability
-gpgpu_ptx_inst_debug_to_file                    0 # Dump executed instructions' debug information to file
-gpgpu_ptx_inst_debug_file       inst_debug.txt # Executed instructions' debug output file
-gpgpu_ptx_inst_debug_thread_uid                    1 # Thread UID for executed instructions' debug output
-gpgpu_simd_model                       1 # 1 = post-dominator
-gpgpu_shader_core_pipeline              1536:32 # shader core pipeline config, i.e., {<nthread>:<warpsize>}
-gpgpu_tex_cache:l1  4:128:24,L:R:m:N:L,F:128:4,128:2 # per-shader L1 texture cache  (READ-ONLY) config  {<nsets>:<bsize>:<assoc>,<rep>:<wr>:<alloc>:<wr_alloc>,<mshr>:<N>:<merge>,<mq>:<rf>}
-gpgpu_const_cache:l1 64:64:2,L:R:f:N:L,A:2:32,4 # per-shader L1 constant memory cache  (READ-ONLY) config  {<nsets>:<bsize>:<assoc>,<rep>:<wr>:<alloc>:<wr_alloc>,<mshr>:<N>:<merge>,<mq>} 
-gpgpu_cache:il1     4:128:4,L:R:f:N:L,A:2:32,4 # shader L1 instruction cache config  {<nsets>:<bsize>:<assoc>,<rep>:<wr>:<alloc>:<wr_alloc>,<mshr>:<N>:<merge>,<mq>} 
-gpgpu_cache:dl1     32:128:4,L:L:m:N:H,A:32:8,8 # per-shader L1 data cache config  {<nsets>:<bsize>:<assoc>,<rep>:<wr>:<alloc>:<wr_alloc>,<mshr>:<N>:<merge>,<mq> | none}
-gpgpu_cache:dl1PrefL1                 none # per-shader L1 data cache config  {<nsets>:<bsize>:<assoc>,<rep>:<wr>:<alloc>:<wr_alloc>,<mshr>:<N>:<merge>,<mq> | none}
-gpgpu_cache:dl1PreShared                 none # per-shader L1 data cache config  {<nsets>:<bsize>:<assoc>,<rep>:<wr>:<alloc>:<wr_alloc>,<mshr>:<N>:<merge>,<mq> | none}
-gmem_skip_L1D                          0 # global memory access skip L1D cache (implements -Xptxas -dlcm=cg, default=no skip)
-gpgpu_perfect_mem                      0 # enable perfect memory mode (no cache miss)
-n_regfile_gating_group                    4 # group of lanes that should be read/written together)
-gpgpu_clock_gated_reg_file                    0 # enable clock gated reg file for power calculations
-gpgpu_clock_gated_lanes                    0 # enable clock gated lanes for power calculations
-gpgpu_shader_registers                32768 # Number of registers per shader core. Limits number of concurrent CTAs. (default 8192)
-gpgpu_shader_cta                       8 # Maximum number of concurrent CTAs in shader (default 8)
-gpgpu_num_cta_barriers                   16 # Maximum number of named barriers per CTA (default 16)
-gpgpu_n_clusters                      15 # number of processing clusters
-gpgpu_n_cores_per_cluster                    1 # number of simd cores per cluster
-gpgpu_n_cluster_ejection_buffer_size                    8 # number of packets in ejection buffer
-gpgpu_n_ldst_response_buffer_size                    2 # number of response packets in ld/st unit ejection buffer
-gpgpu_shmem_size                   16384 # Size of shared memory per shader core (default 16kB)
-gpgpu_shmem_size                   49152 # Size of shared memory per shader core (default 16kB)
-gpgpu_shmem_size_PrefL1                16384 # Size of shared memory per shader core (default 16kB)
-gpgpu_shmem_size_PrefShared                16384 # Size of shared memory per shader core (default 16kB)
-gpgpu_shmem_num_banks                   32 # Number of banks in the shared memory in each shader core (default 16)
-gpgpu_shmem_limited_broadcast                    0 # Limit shared memory to do one broadcast per cycle (default on)
-gpgpu_shmem_warp_parts                    1 # Number of portions a warp is divided into for shared memory bank conflict check 
-gpgpu_warpdistro_shader                   -1 # Specify which shader core to collect the warp size distribution from
-gpgpu_warp_issue_shader                    0 # Specify which shader core to collect the warp issue distribution from
-gpgpu_local_mem_map                    1 # Mapping from local memory space address to simulated GPU physical address space (default = enabled)
-gpgpu_num_reg_banks                   16 # Number of register banks (default = 8)
-gpgpu_reg_bank_use_warp_id                    0 # Use warp ID in mapping registers to banks (default = off)
-gpgpu_operand_collector_num_units_sp                    6 # number of collector units (default = 4)
-gpgpu_operand_collector_num_units_sfu                    8 # number of collector units (default = 4)
-gpgpu_operand_collector_num_units_mem                    2 # number of collector units (default = 2)
-gpgpu_operand_collector_num_units_gen                    0 # number of collector units (default = 0)
-gpgpu_operand_collector_num_in_ports_sp                    2 # number of collector unit in ports (default = 1)
-gpgpu_operand_collector_num_in_ports_sfu                    1 # number of collector unit in ports (default = 1)
-gpgpu_operand_collector_num_in_ports_mem                    1 # number of collector unit in ports (default = 1)
-gpgpu_operand_collector_num_in_ports_gen                    0 # number of collector unit in ports (default = 0)
-gpgpu_operand_collector_num_out_ports_sp                    2 # number of collector unit in ports (default = 1)
-gpgpu_operand_collector_num_out_ports_sfu                    1 # number of collector unit in ports (default = 1)
-gpgpu_operand_collector_num_out_ports_mem                    1 # number of collector unit in ports (default = 1)
-gpgpu_operand_collector_num_out_ports_gen                    0 # number of collector unit in ports (default = 0)
-gpgpu_coalesce_arch                   13 # Coalescing arch (default = 13, anything else is off for now)
-gpgpu_num_sched_per_core                    2 # Number of warp schedulers per core
-gpgpu_max_insn_issue_per_warp                    1 # Max number of instructions that can be issued per warp in one cycle by scheduler
-gpgpu_simt_core_sim_order                    1 # Select the simulation order of cores in a cluster (0=Fix, 1=Round-Robin)
-gpgpu_pipeline_widths        2,1,1,2,1,1,2 # Pipeline widths ID_OC_SP,ID_OC_SFU,ID_OC_MEM,OC_EX_SP,OC_EX_SFU,OC_EX_MEM,EX_WB
-gpgpu_num_sp_units                     2 # Number of SP units (default=1)
-gpgpu_num_sfu_units                    1 # Number of SF units (default=1)
-gpgpu_num_mem_units                    1 # Number if ldst units (default=1) WARNING: not hooked up to anything
-gpgpu_scheduler                      gto # Scheduler configuration: < lrr | gto | two_level_active > If two_level_active:<num_active_warps>:<inner_prioritization>:<outer_prioritization>For complete list of prioritization values see shader.h enum scheduler_prioritization_typeDefault: gto
-gpgpu_dram_scheduler                    1 # 0 = fifo, 1 = FR-FCFS (defaul)
-gpgpu_dram_partition_queues              8:8:8:8 # i2$:$2d:d2$:$2i
-l2_ideal                               0 # Use a ideal L2 cache that always hit
-gpgpu_cache:dl2     64:128:8,L:B:m:W:L,A:32:4,4:0,32 # unified banked L2 data cache config  {<nsets>:<bsize>:<assoc>,<rep>:<wr>:<alloc>:<wr_alloc>,<mshr>:<N>:<merge>,<mq>}
-gpgpu_cache:dl2_texture_only                    0 # L2 cache used for texture only
-gpgpu_n_mem                            6 # number of memory modules (e.g. memory controllers) in gpu
-gpgpu_n_sub_partition_per_mchannel                    2 # number of memory subpartition in each memory module
-gpgpu_n_mem_per_ctrlr                    2 # number of memory chips per memory controller
-gpgpu_memlatency_stat                   14 # track and display latency statistics 0x2 enables MC, 0x4 enables queue logs
-gpgpu_frfcfs_dram_sched_queue_size                   16 # 0 = unlimited (default); # entries per chip
-gpgpu_dram_return_queue_size                  116 # 0 = unlimited (default); # entries per chip
-gpgpu_dram_buswidth                    4 # default = 4 bytes (8 bytes per cycle at DDR)
-gpgpu_dram_burst_length                    8 # Burst length of each DRAM request (default = 4 data bus cycle)
-dram_data_command_freq_ratio                    4 # Frequency ratio between DRAM data bus and command bus (default = 2 times, i.e. DDR)
-gpgpu_dram_timing_opt nbk=16:CCD=2:RRD=6:RCD=12:RAS=28:RP=12:RC=40: CL=12:WL=4:CDLR=5:WR=12:nbkgrp=4:CCDL=3:RTPL=2 # DRAM timing parameters = {nbk:tCCD:tRRD:tRCD:tRAS:tRP:tRC:CL:WL:tCDLR:tWR:nbkgrp:tCCDL:tRTPL}
-rop_latency                          120 # ROP queue latency (default 85)
-dram_latency                         100 # DRAM latency (default 30)
-gpgpu_mem_addr_mapping dramid@8;00000000.00000000.00000000.00000000.0000RRRR.RRRRRRRR.BBBCCCCB.CCSSSSSS # mapping memory address to dram model {dramid@<start bit>;<memory address map>}
-gpgpu_mem_addr_test                    0 # run sweep test to check address mapping for aliased address
-gpgpu_mem_address_mask                    1 # 0 = old addressing mask, 1 = new addressing mask, 2 = new add. mask + flipped bank sel and chip sel bits
-gpuwattch_xml_file  gpuwattch_gtx480.xml # GPUWattch XML file
-power_simulation_enabled                    1 # Turn on power simulator (1=On, 0=Off)
-power_per_cycle_dump                    0 # Dump detailed power output each cycle
-power_trace_enabled                    0 # produce a file for the power trace (1=On, 0=Off)
-power_trace_zlevel                     6 # Compression level of the power trace output log (0=no comp, 9=highest)
-steady_power_levels_enabled                    0 # produce a file for the steady power levels (1=On, 0=Off)
-steady_state_definition                  8:4 # allowed deviation:number of samples
-gpgpu_max_cycle                        0 # terminates gpu simulation early (0 = no limit)
-gpgpu_max_insn                         0 # terminates gpu simulation early (0 = no limit)
-gpgpu_max_cta                          0 # terminates gpu simulation early (0 = no limit)
-gpgpu_runtime_stat                   500 # display runtime statistics such as dram utilization {<freq>:<flag>}
-liveness_message_freq                    1 # Minimum number of seconds between simulation liveness messages (0 = always print)
-gpgpu_flush_l1_cache                    0 # Flush L1 cache at the end of each kernel call
-gpgpu_flush_l2_cache                    0 # Flush L2 cache at the end of each kernel call
-gpgpu_deadlock_detect                    1 # Stop the simulation at deadlock (1=on (default), 0=off)
-gpgpu_ptx_instruction_classification                    0 # if enabled will classify ptx instruction types per kernel (Max 255 kernels now)
-gpgpu_ptx_sim_mode                     0 # Select between Performance (default) or Functional simulation (1)
-gpgpu_clock_domains 700.0:700.0:700.0:924.0 # Clock Domain Frequencies in MhZ {<Core Clock>:<ICNT Clock>:<L2 Clock>:<DRAM Clock>}
-gpgpu_max_concurrent_kernel                    8 # maximum kernels that can run concurrently on GPU
-gpgpu_cflog_interval                    0 # Interval between each snapshot in control flow logger
-visualizer_enabled                     0 # Turn on visualizer output (1=On, 0=Off)
-visualizer_outputfile                 NULL # Specifies the output log file for visualizer
-visualizer_zlevel                      6 # Compression level of the visualizer output log (0=no comp, 9=highest)
-trace_enabled                          0 # Turn on traces
-trace_components                    none # comma seperated list of traces to enable. Complete list found in trace_streams.tup. Default none
-trace_sampling_core                    0 # The core which is printed using CORE_DPRINTF. Default 0
-trace_sampling_memory_partition                   -1 # The memory partition which is printed using MEMPART_DPRINTF. Default -1 (i.e. all)
-enable_ptx_file_line_stats                    1 # Turn on PTX source line statistic profiling. (1 = On)
-ptx_line_stats_filename gpgpu_inst_stats.txt # Output file for PTX source line statistics.
-save_embedded_ptx                      0 # saves ptx files embedded in binary as <n>.ptx
-keep                                   0 # keep intermediate files created by GPGPU-Sim when interfacing with external programs
-gpgpu_ptx_save_converted_ptxplus                    0 # Saved converted ptxplus to a file
-ptx_opcode_latency_int         4,13,4,5,145 # Opcode latencies for integers <ADD,MAX,MUL,MAD,DIV>Default 1,1,19,25,145
-ptx_opcode_latency_fp          4,13,4,5,39 # Opcode latencies for single precision floating points <ADD,MAX,MUL,MAD,DIV>Default 1,1,1,1,30
-ptx_opcode_latency_dp         8,19,8,8,330 # Opcode latencies for double precision floating points <ADD,MAX,MUL,MAD,DIV>Default 8,8,8,8,335
-ptx_opcode_initiation_int            1,2,2,1,8 # Opcode initiation intervals for integers <ADD,MAX,MUL,MAD,DIV>Default 1,1,4,4,32
-ptx_opcode_initiation_fp            1,2,1,1,4 # Opcode initiation intervals for single precision floating points <ADD,MAX,MUL,MAD,DIV>Default 1,1,1,1,5
-ptx_opcode_initiation_dp         8,16,8,8,130 # Opcode initiation intervals for double precision floating points <ADD,MAX,MUL,MAD,DIV>Default 8,8,8,8,130
DRAM Timing Options:
nbk                                    16 # number of banks
CCD                                     2 # column to column delay
RRD                                     6 # minimal delay between activation of rows in different banks
RCD                                    12 # row to column delay
RAS                                    28 # time needed to activate row
RP                                     12 # time needed to precharge (deactivate) row
RC                                     40 # row cycle time
CDLR                                    5 # switching from write to read (changes tWTR)
WR                                     12 # last data-in to row precharge
CL                                     12 # CAS latency
WL                                      4 # Write latency
nbkgrp                                  4 # number of bank groups
CCDL                                    3 # column to column delay between accesses to different bank groups
RTPL                                    2 # read to precharge delay between accesses to different bank groups
Total number of memory sub partition = 12
addr_dec_mask[CHIP]  = 0000000000000000 	high:64 low:0
addr_dec_mask[BK]    = 000000000000e100 	high:16 low:8
addr_dec_mask[ROW]   = 000000000fff0000 	high:28 low:16
addr_dec_mask[COL]   = 0000000000001eff 	high:13 low:0
addr_dec_mask[BURST] = 000000000000003f 	high:6 low:0
sub_partition_id_mask = 0000000000000100
GPGPU-Sim uArch: clock freqs: 700000000.000000:700000000.000000:700000000.000000:924000000.000000
GPGPU-Sim uArch: clock periods: 0.00000000142857142857:0.00000000142857142857:0.00000000142857142857:0.00000000108225108225
*** Initializing Memory Statistics ***
GPGPU-Sim uArch: interconnect node map (shaderID+MemID to icntID)
GPGPU-Sim uArch: Memory nodes ID start from index: 15
GPGPU-Sim uArch:    0   1   2   3   4
GPGPU-Sim uArch:    5   6   7   8   9
GPGPU-Sim uArch:   10  11  12  13  14
GPGPU-Sim uArch:   15  16  17  18  19
GPGPU-Sim uArch:   20  21  22  23  24
GPGPU-Sim uArch:   25  26
GPGPU-Sim uArch: interconnect node reverse map (icntID to shaderID+MemID)
GPGPU-Sim uArch: Memory nodes start from ID: 15
GPGPU-Sim uArch:    0   1   2   3   4
GPGPU-Sim uArch:    5   6   7   8   9
GPGPU-Sim uArch:   10  11  12  13  14
GPGPU-Sim uArch:   15  16  17  18  19
GPGPU-Sim uArch:   20  21  22  23  24
GPGPU-Sim uArch:   25  26
63fd297aa63cb0575298d2a4a3bab031  /root/ispass2009-benchmarks/bin/release/BFS
GPGPU-Sim uArch: performance model initialization complete.
GPGPU-Sim PTX: __cudaRegisterFatBinary, fat_cubin_handle = 1, filename=bfs.cu
self exe links to: /root/ispass2009-benchmarks/bin/release/BFS
Running md5sum using "md5sum /root/ispass2009-benchmarks/bin/release/BFS "
Running cuobjdump using "$CUDA_INSTALL_PATH/bin/cuobjdump -ptx -elf -sass /root/ispass2009-benchmarks/bin/release/BFS > _cuobjdump_complete_output_xHBxsq"
Parsing file _cuobjdump_complete_output_xHBxsq
######### cuobjdump parser ########
## Adding new section PTX
Adding ptx filename: _cuobjdump_1.ptx
Adding arch: sm_30
Adding identifier: bfs.cu
## Adding new section ELF
Adding arch: sm_30
Adding identifier: bfs.cu
## Adding new section ELF
Adding arch: sm_20
Adding identifier: bfs.cu
## Adding new section PTX
Adding ptx filename: _cuobjdump_2.ptx
Adding arch: sm_20
Adding identifier: bfs.cu
## Adding new section PTX
Adding ptx filename: _cuobjdump_3.ptx
Adding arch: sm_10
Adding identifier: bfs.cu
## Adding new section ELF
Adding arch: sm_10
Adding identifier: bfs.cu
Done parsing!!!
GPGPU-Sim PTX: __cudaRegisterFunction _Z6KernelP4NodePiPbS2_S1_S2_i : hostFun 0x0x4039b0, fat_cubin_handle = 1
GPGPU-Sim PTX: Warning %temp1 was declared previous at _1.ptx:58 skipping new declaration
GPGPU-Sim PTX: Warning %temp2 was declared previous at _1.ptx:59 skipping new declaration
GPGPU-Sim PTX: instruction assembly for function '_Z6KernelP4NodePiPbS2_S1_S2_i'...   done.
GPGPU-Sim PTX: finding reconvergence points for '_Z6KernelP4NodePiPbS2_S1_S2_i'...
GPGPU-Sim PTX: Finding dominators for '_Z6KernelP4NodePiPbS2_S1_S2_i'...
GPGPU-Sim PTX: Finding immediate dominators for '_Z6KernelP4NodePiPbS2_S1_S2_i'...
GPGPU-Sim PTX: Finding postdominators for '_Z6KernelP4NodePiPbS2_S1_S2_i'...
GPGPU-Sim PTX: Finding immediate postdominators for '_Z6KernelP4NodePiPbS2_S1_S2_i'...
GPGPU-Sim PTX: pre-decoding instructions for '_Z6KernelP4NodePiPbS2_S1_S2_i'...
GPGPU-Sim PTX: reconvergence points for _Z6KernelP4NodePiPbS2_S1_S2_i...
GPGPU-Sim PTX:  1 (potential) branch divergence @  PC=0x090 (_1.ptx:52) @%p1 bra BB0_7;
GPGPU-Sim PTX:    immediate post dominator      @  PC=0x208 (_1.ptx:133) ret;
GPGPU-Sim PTX:  2 (potential) branch divergence @  PC=0x0d0 (_1.ptx:65) @%p2 bra BB0_7;
GPGPU-Sim PTX:    immediate post dominator      @  PC=0x208 (_1.ptx:133) ret;
GPGPU-Sim PTX:  3 (potential) branch divergence @  PC=0x130 (_1.ptx:85) @%p3 bra BB0_7;
GPGPU-Sim PTX:    immediate post dominator      @  PC=0x208 (_1.ptx:133) ret;
GPGPU-Sim PTX:  4 (potential) branch divergence @  PC=0x190 (_1.ptx:107) @%p4 bra BB0_6;
GPGPU-Sim PTX:    immediate post dominator      @  PC=0x1d8 (_1.ptx:123) add.s32 %r29, %r29, 1;
GPGPU-Sim PTX:  5 (potential) branch divergence @  PC=0x200 (_1.ptx:129) @%p5 bra BB0_4;
GPGPU-Sim PTX:    immediate post dominator      @  PC=0x208 (_1.ptx:133) ret;
GPGPU-Sim PTX: ... end of reconvergence points for _Z6KernelP4NodePiPbS2_S1_S2_i
GPGPU-Sim PTX: ... done pre-decoding instructions for '_Z6KernelP4NodePiPbS2_S1_S2_i'.
GPGPU-Sim PTX: finished parsing EMBEDDED .ptx file _1.ptx
Adding _cuobjdump_2.ptx with cubin handle 1
GPGPU-Sim PTX: extracting embedded .ptx to temporary file "_ptx_VeZ9pH"
Running: cat _ptx_VeZ9pH | sed 's/.version 1.5/.version 1.4/' | sed 's/, texmode_independent//' | sed 's/\(\.extern \.const\[1\] .b8 \w\+\)\[\]/\1\[1\]/' | sed 's/const\[.\]/const\[0\]/g' > _ptx2_9gzNnY
GPGPU-Sim PTX: generating ptxinfo using "$CUDA_INSTALL_PATH/bin/ptxas --gpu-name=sm_20 -v _ptx2_9gzNnY --output-file  /dev/null 2> _ptx_VeZ9pHinfo"
GPGPU-Sim PTX: Kernel '_Z6KernelP4NodePiPbS2_S1_S2_i' : regs=15, lmem=0, smem=0, cmem=84
GPGPU-Sim PTX: removing ptxinfo using "rm -f _ptx_VeZ9pH _ptx2_9gzNnY _ptx_VeZ9pHinfo"
GPGPU-Sim PTX: loading globals with explicit initializers... 
GPGPU-Sim PTX: finished loading globals (0 bytes total).
GPGPU-Sim PTX: loading constants with explicit initializers...  done.
Reading File
Input file: /root/ispass2009-benchmarks/BFS/data/graph65536.txt
Read File
Copied Everything to GPU memory

GPGPU-Sim PTX: cudaLaunch for 0x0x4039b0 (mode=performance simulation) on stream 0
GPGPU-Sim PTX: pushing kernel '_Z6KernelP4NodePiPbS2_S1_S2_i' to stream 0, gridDim= (256,1,1) blockDim = (256,1,1) 
kernel '_Z6KernelP4NodePiPbS2_S1_S2_i' transfer to GPU hardware scheduler
GPGPU-Sim uArch: Shader 1 bind to kernel 1 '_Z6KernelP4NodePiPbS2_S1_S2_i'
GPGPU-Sim uArch: CTA/core = 6, limited by: threads
GPGPU-Sim uArch: core:  1, cta: 0 initialized @(1,0)
GPGPU-Sim uArch: Shader 2 bind to kernel 1 '_Z6KernelP4NodePiPbS2_S1_S2_i'
GPGPU-Sim uArch: core:  2, cta: 0 initialized @(1,0)
GPGPU-Sim uArch: Shader 3 bind to kernel 1 '_Z6KernelP4NodePiPbS2_S1_S2_i'
GPGPU-Sim uArch: core:  3, cta: 0 initialized @(1,0)
GPGPU-Sim uArch: Shader 4 bind to kernel 1 '_Z6KernelP4NodePiPbS2_S1_S2_i'
GPGPU-Sim uArch: core:  4, cta: 0 initialized @(1,0)
GPGPU-Sim uArch: Shader 5 bind to kernel 1 '_Z6KernelP4NodePiPbS2_S1_S2_i'
GPGPU-Sim uArch: core:  5, cta: 0 initialized @(1,0)
GPGPU-Sim uArch: Shader 6 bind to kernel 1 '_Z6KernelP4NodePiPbS2_S1_S2_i'
GPGPU-Sim uArch: core:  6, cta: 0 initialized @(1,0)
GPGPU-Sim uArch: Shader 7 bind to kernel 1 '_Z6KernelP4NodePiPbS2_S1_S2_i'
GPGPU-Sim uArch: core:  7, cta: 0 initialized @(1,0)
GPGPU-Sim uArch: Shader 8 bind to kernel 1 '_Z6KernelP4NodePiPbS2_S1_S2_i'
GPGPU-Sim uArch: core:  8, cta: 0 initialized @(1,0)
GPGPU-Sim uArch: Shader 9 bind to kernel 1 '_Z6KernelP4NodePiPbS2_S1_S2_i'
GPGPU-Sim uArch: core:  9, cta: 0 initialized @(1,0)
GPGPU-Sim uArch: Shader 10 bind to kernel 1 '_Z6KernelP4NodePiPbS2_S1_S2_i'
GPGPU-Sim uArch: core: 10, cta: 0 initialized @(1,0)
GPGPU-Sim uArch: Shader 11 bind to kernel 1 '_Z6KernelP4NodePiPbS2_S1_S2_i'
GPGPU-Sim uArch: core: 11, cta: 0 initialized @(1,0)
GPGPU-Sim uArch: Shader 12 bind to kernel 1 '_Z6KernelP4NodePiPbS2_S1_S2_i'
GPGPU-Sim uArch: core: 12, cta: 0 initialized @(1,0)
GPGPU-Sim uArch: Shader 13 bind to kernel 1 '_Z6KernelP4NodePiPbS2_S1_S2_i'
GPGPU-Sim uArch: core: 13, cta: 0 initialized @(1,0)
GPGPU-Sim uArch: Shader 14 bind to kernel 1 '_Z6KernelP4NodePiPbS2_S1_S2_i'
GPGPU-Sim uArch: core: 14, cta: 0 initialized @(1,0)
GPGPU-Sim uArch: Shader 0 bind to kernel 1 '_Z6KernelP4NodePiPbS2_S1_S2_i'
GPGPU-Sim uArch: core:  0, cta: 0 initialized @(1,0)
GPGPU-Sim uArch: core:  1, cta: 1 initialized @(2,0)
GPGPU-Sim uArch: core:  2, cta: 1 initialized @(2,0)
GPGPU-Sim uArch: core:  3, cta: 1 initialized @(2,0)
GPGPU-Sim uArch: core:  4, cta: 1 initialized @(2,0)
GPGPU-Sim uArch: core:  5, cta: 1 initialized @(2,0)
GPGPU-Sim uArch: core:  6, cta: 1 initialized @(2,0)
GPGPU-Sim uArch: core:  7, cta: 1 initialized @(2,0)
GPGPU-Sim uArch: core:  8, cta: 1 initialized @(2,0)
GPGPU-Sim uArch: core:  9, cta: 1 initialized @(2,0)
GPGPU-Sim uArch: core: 10, cta: 1 initialized @(2,0)
GPGPU-Sim uArch: core: 11, cta: 1 initialized @(2,0)
GPGPU-Sim uArch: core: 12, cta: 1 initialized @(2,0)
GPGPU-Sim uArch: core: 13, cta: 1 initialized @(2,0)
GPGPU-Sim uArch: core: 14, cta: 1 initialized @(2,0)
GPGPU-Sim uArch: core:  0, cta: 1 initialized @(2,0)
GPGPU-Sim uArch: core:  1, cta: 2 initialized @(3,0)
GPGPU-Sim uArch: core:  2, cta: 2 initialized @(3,0)
GPGPU-Sim uArch: core:  3, cta: 2 initialized @(3,0)
GPGPU-Sim uArch: core:  4, cta: 2 initialized @(3,0)
GPGPU-Sim uArch: core:  5, cta: 2 initialized @(3,0)
GPGPU-Sim uArch: core:  6, cta: 2 initialized @(3,0)
GPGPU-Sim uArch: core:  7, cta: 2 initialized @(3,0)
GPGPU-Sim uArch: core:  8, cta: 2 initialized @(3,0)
GPGPU-Sim uArch: core:  9, cta: 2 initialized @(3,0)
GPGPU-Sim uArch: core: 10, cta: 2 initialized @(3,0)
GPGPU-Sim uArch: core: 11, cta: 2 initialized @(3,0)
GPGPU-Sim uArch: core: 12, cta: 2 initialized @(3,0)
GPGPU-Sim uArch: core: 13, cta: 2 initialized @(3,0)
GPGPU-Sim uArch: core: 14, cta: 2 initialized @(3,0)
GPGPU-Sim uArch: core:  0, cta: 2 initialized @(3,0)
GPGPU-Sim uArch: core:  1, cta: 3 initialized @(4,0)
GPGPU-Sim uArch: core:  2, cta: 3 initialized @(4,0)
GPGPU-Sim uArch: core:  3, cta: 3 initialized @(4,0)
GPGPU-Sim uArch: core:  4, cta: 3 initialized @(4,0)
GPGPU-Sim uArch: core:  5, cta: 3 initialized @(4,0)
GPGPU-Sim uArch: core:  6, cta: 3 initialized @(4,0)
GPGPU-Sim uArch: core:  7, cta: 3 initialized @(4,0)
GPGPU-Sim uArch: core:  8, cta: 3 initialized @(4,0)
GPGPU-Sim uArch: core:  9, cta: 3 initialized @(4,0)
GPGPU-Sim uArch: core: 10, cta: 3 initialized @(4,0)
GPGPU-Sim uArch: core: 11, cta: 3 initialized @(4,0)
GPGPU-Sim uArch: core: 12, cta: 3 initialized @(4,0)
GPGPU-Sim uArch: core: 13, cta: 3 initialized @(4,0)
GPGPU-Sim uArch: core: 14, cta: 3 initialized @(4,0)
GPGPU-Sim uArch: core:  0, cta: 3 initialized @(4,0)
GPGPU-Sim uArch: core:  1, cta: 4 initialized @(5,0)
GPGPU-Sim uArch: core:  2, cta: 4 initialized @(5,0)
GPGPU-Sim uArch: core:  3, cta: 4 initialized @(5,0)
GPGPU-Sim uArch: core:  4, cta: 4 initialized @(5,0)
GPGPU-Sim uArch: core:  5, cta: 4 initialized @(5,0)
GPGPU-Sim uArch: core:  6, cta: 4 initialized @(5,0)
GPGPU-Sim uArch: core:  7, cta: 4 initialized @(5,0)
GPGPU-Sim uArch: core:  8, cta: 4 initialized @(5,0)
GPGPU-Sim uArch: core:  9, cta: 4 initialized @(5,0)
GPGPU-Sim uArch: core: 10, cta: 4 initialized @(5,0)
GPGPU-Sim uArch: core: 11, cta: 4 initialized @(5,0)
GPGPU-Sim uArch: core: 12, cta: 4 initialized @(5,0)
GPGPU-Sim uArch: core: 13, cta: 4 initialized @(5,0)
GPGPU-Sim uArch: core: 14, cta: 4 initialized @(5,0)
GPGPU-Sim uArch: core:  0, cta: 4 initialized @(5,0)
GPGPU-Sim uArch: core:  1, cta: 5 initialized @(6,0)
GPGPU-Sim uArch: core:  2, cta: 5 initialized @(6,0)
GPGPU-Sim uArch: core:  3, cta: 5 initialized @(6,0)
GPGPU-Sim uArch: core:  4, cta: 5 initialized @(6,0)
GPGPU-Sim uArch: core:  5, cta: 5 initialized @(6,0)
GPGPU-Sim uArch: core:  6, cta: 5 initialized @(6,0)
GPGPU-Sim uArch: core:  7, cta: 5 initialized @(6,0)
GPGPU-Sim uArch: core:  8, cta: 5 initialized @(6,0)
GPGPU-Sim uArch: core:  9, cta: 5 initialized @(6,0)
GPGPU-Sim uArch: core: 10, cta: 5 initialized @(6,0)
GPGPU-Sim uArch: core: 11, cta: 5 initialized @(6,0)
GPGPU-Sim uArch: core: 12, cta: 5 initialized @(6,0)
GPGPU-Sim uArch: core: 13, cta: 5 initialized @(6,0)
GPGPU-Sim uArch: core: 14, cta: 5 initialized @(6,0)
GPGPU-Sim uArch: core:  0, cta: 5 initialized @(6,0)
GPGPU-Sim uArch: cycles simulated: 500  inst.: 0 (ipc= 0.0) sim_rate=0 (inst/sec) elapsed = 0:0:00:01 / Fri Mar 19 13:37:58 2021
GPGPU-Sim PTX: 100000 instructions simulated : ctaid=(23,0,0) tid=(95,0,0)
GPGPU-Sim PTX: 200000 instructions simulated : ctaid=(59,0,0) tid=(223,0,0)
GPGPU-Sim PTX: 300000 instructions simulated : ctaid=(33,0,0) tid=(31,0,0)
GPGPU-Sim PTX: 400000 instructions simulated : ctaid=(56,0,0) tid=(63,0,0)
GPGPU-Sim PTX: 500000 instructions simulated : ctaid=(86,0,0) tid=(191,0,0)
GPGPU-Sim PTX: 600000 instructions simulated : ctaid=(81,0,0) tid=(154,0,0)
GPGPU-Sim uArch: Shader 0 finished CTA #5 (1542,0), 5 CTAs running
GPGPU-Sim uArch: Shader 0 finished CTA #0 (1542,0), 4 CTAs running
GPGPU-Sim uArch: Shader 0 finished CTA #1 (1542,0), 3 CTAs running
GPGPU-Sim uArch: core:  0, cta: 0 initialized @(1543,0)
GPGPU-Sim uArch: core:  0, cta: 1 initialized @(1544,0)
GPGPU-Sim uArch: core:  0, cta: 5 initialized @(1545,0)
GPGPU-Sim uArch: Shader 4 finished CTA #0 (1546,0), 5 CTAs running
GPGPU-Sim uArch: core:  4, cta: 0 initialized @(1547,0)
GPGPU-Sim uArch: Shader 1 finished CTA #5 (1547,0), 5 CTAs running
GPGPU-Sim uArch: core:  1, cta: 5 initialized @(1548,0)
GPGPU-Sim uArch: Shader 1 finished CTA #1 (1548,0), 5 CTAs running
GPGPU-Sim uArch: Shader 1 finished CTA #2 (1548,0), 4 CTAs running
GPGPU-Sim uArch: core:  1, cta: 1 initialized @(1549,0)
GPGPU-Sim uArch: core:  1, cta: 2 initialized @(1550,0)
GPGPU-Sim uArch: Shader 4 finished CTA #2 (1550,0), 5 CTAs running
GPGPU-Sim uArch: core:  4, cta: 2 initialized @(1551,0)
GPGPU-Sim uArch: Shader 4 finished CTA #4 (1554,0), 5 CTAs running
GPGPU-Sim uArch: Shader 4 finished CTA #5 (1554,0), 4 CTAs running
GPGPU-Sim uArch: core:  4, cta: 4 initialized @(1555,0)
GPGPU-Sim uArch: core:  4, cta: 5 initialized @(1556,0)
GPGPU-Sim uArch: Shader 0 finished CTA #2 (1559,0), 5 CTAs running
GPGPU-Sim uArch: Shader 0 finished CTA #3 (1559,0), 4 CTAs running
GPGPU-Sim uArch: Shader 0 finished CTA #4 (1559,0), 3 CTAs running
GPGPU-Sim uArch: core:  0, cta: 2 initialized @(1560,0)
GPGPU-Sim uArch: Shader 5 finished CTA #5 (1560,0), 5 CTAs running
GPGPU-Sim uArch: Shader 5 finished CTA #0 (1560,0), 4 CTAs running
GPGPU-Sim uArch: Shader 5 finished CTA #1 (1560,0), 3 CTAs running
GPGPU-Sim uArch: Shader 5 finished CTA #2 (1560,0), 2 CTAs running
GPGPU-Sim uArch: Shader 5 finished CTA #3 (1560,0), 1 CTAs running
GPGPU-Sim uArch: core:  5, cta: 0 initialized @(1561,0)
GPGPU-Sim uArch: core:  0, cta: 3 initialized @(1561,0)
GPGPU-Sim uArch: core:  5, cta: 1 initialized @(1562,0)
GPGPU-Sim uArch: core:  0, cta: 4 initialized @(1562,0)
GPGPU-Sim uArch: Shader 4 finished CTA #1 (1562,0), 5 CTAs running
GPGPU-Sim uArch: core:  4, cta: 1 initialized @(1563,0)
GPGPU-Sim uArch: core:  5, cta: 2 initialized @(1563,0)
GPGPU-Sim uArch: core:  5, cta: 3 initialized @(1564,0)
GPGPU-Sim uArch: core:  5, cta: 5 initialized @(1565,0)
GPGPU-Sim uArch: Shader 3 finished CTA #4 (1566,0), 5 CTAs running
GPGPU-Sim uArch: Shader 3 finished CTA #5 (1566,0), 4 CTAs running
GPGPU-Sim uArch: Shader 3 finished CTA #0 (1566,0), 3 CTAs running
GPGPU-Sim uArch: Shader 3 finished CTA #1 (1566,0), 2 CTAs running
GPGPU-Sim uArch: Shader 3 finished CTA #2 (1566,0), 1 CTAs running
GPGPU-Sim uArch: core:  3, cta: 0 initialized @(1567,0)
GPGPU-Sim uArch: core:  3, cta: 1 initialized @(1568,0)
GPGPU-Sim uArch: core:  3, cta: 2 initialized @(1569,0)
GPGPU-Sim uArch: core:  3, cta: 4 initialized @(1570,0)
GPGPU-Sim uArch: Shader 4 finished CTA #3 (1570,0), 5 CTAs running
GPGPU-Sim uArch: core:  4, cta: 3 initialized @(1571,0)
GPGPU-Sim uArch: core:  3, cta: 5 initialized @(1571,0)
GPGPU-Sim uArch: Shader 6 finished CTA #0 (1572,0), 5 CTAs running
GPGPU-Sim uArch: Shader 6 finished CTA #1 (1572,0), 4 CTAs running
GPGPU-Sim uArch: Shader 6 finished CTA #2 (1572,0), 3 CTAs running
GPGPU-Sim uArch: core:  6, cta: 0 initialized @(1573,0)
GPGPU-Sim uArch: Shader 1 finished CTA #3 (1573,0), 5 CTAs running
GPGPU-Sim uArch: Shader 1 finished CTA #4 (1573,0), 4 CTAs running
GPGPU-Sim uArch: core:  1, cta: 3 initialized @(1574,0)
GPGPU-Sim uArch: core:  6, cta: 1 initialized @(1574,0)
GPGPU-Sim uArch: core:  1, cta: 4 initialized @(1575,0)
GPGPU-Sim uArch: core:  6, cta: 2 initialized @(1575,0)
GPGPU-Sim uArch: Shader 2 finished CTA #5 (1578,0), 5 CTAs running
GPGPU-Sim uArch: Shader 2 finished CTA #0 (1578,0), 4 CTAs running
GPGPU-Sim uArch: Shader 2 finished CTA #1 (1578,0), 3 CTAs running
GPGPU-Sim uArch: Shader 2 finished CTA #2 (1578,0), 2 CTAs running
GPGPU-Sim uArch: core:  2, cta: 0 initialized @(1579,0)
GPGPU-Sim uArch: core:  2, cta: 1 initialized @(1580,0)
GPGPU-Sim uArch: Shader 10 finished CTA #5 (1580,0), 5 CTAs running
GPGPU-Sim uArch: Shader 10 finished CTA #0 (1580,0), 4 CTAs running
GPGPU-Sim uArch: core: 10, cta: 0 initialized @(1581,0)
GPGPU-Sim uArch: core:  2, cta: 2 initialized @(1581,0)
GPGPU-Sim uArch: core: 10, cta: 5 initialized @(1582,0)
GPGPU-Sim uArch: core:  2, cta: 5 initialized @(1582,0)
GPGPU-Sim uArch: Shader 10 finished CTA #2 (1584,0), 5 CTAs running
GPGPU-Sim uArch: Shader 10 finished CTA #3 (1584,0), 4 CTAs running
GPGPU-Sim uArch: core: 10, cta: 2 initialized @(1585,0)
GPGPU-Sim uArch: core: 10, cta: 3 initialized @(1586,0)
GPGPU-Sim uArch: Shader 12 finished CTA #5 (1590,0), 5 CTAs running
GPGPU-Sim uArch: Shader 12 finished CTA #0 (1590,0), 4 CTAs running
GPGPU-Sim uArch: Shader 12 finished CTA #1 (1590,0), 3 CTAs running
GPGPU-Sim uArch: Shader 12 finished CTA #2 (1590,0), 2 CTAs running
GPGPU-Sim uArch: core: 12, cta: 0 initialized @(1591,0)
GPGPU-Sim uArch: Shader 3 finished CTA #3 (1591,0), 5 CTAs running
GPGPU-Sim uArch: core:  3, cta: 3 initialized @(1592,0)
GPGPU-Sim uArch: core: 12, cta: 1 initialized @(1592,0)
GPGPU-Sim uArch: Shader 8 finished CTA #4 (1592,0), 5 CTAs running
GPGPU-Sim uArch: Shader 8 finished CTA #5 (1592,0), 4 CTAs running
GPGPU-Sim uArch: core:  8, cta: 4 initialized @(1593,0)
GPGPU-Sim uArch: core: 12, cta: 2 initialized @(1593,0)
GPGPU-Sim uArch: Shader 5 finished CTA #4 (1593,0), 5 CTAs running
GPGPU-Sim uArch: core:  5, cta: 4 initialized @(1594,0)
GPGPU-Sim uArch: core:  8, cta: 5 initialized @(1594,0)
GPGPU-Sim uArch: core: 12, cta: 5 initialized @(1594,0)
GPGPU-Sim uArch: Shader 8 finished CTA #1 (1596,0), 5 CTAs running
GPGPU-Sim uArch: Shader 8 finished CTA #2 (1596,0), 4 CTAs running
GPGPU-Sim uArch: core:  8, cta: 1 initialized @(1597,0)
GPGPU-Sim uArch: Shader 6 finished CTA #3 (1597,0), 5 CTAs running
GPGPU-Sim uArch: Shader 6 finished CTA #4 (1597,0), 4 CTAs running
GPGPU-Sim uArch: Shader 6 finished CTA #5 (1597,0), 3 CTAs running
GPGPU-Sim uArch: core:  6, cta: 3 initialized @(1598,0)
GPGPU-Sim uArch: core:  8, cta: 2 initialized @(1598,0)
GPGPU-Sim uArch: core:  6, cta: 4 initialized @(1599,0)
GPGPU-Sim uArch: core:  6, cta: 5 initialized @(1600,0)
GPGPU-Sim uArch: Shader 10 finished CTA #1 (1600,0), 5 CTAs running
GPGPU-Sim uArch: core: 10, cta: 1 initialized @(1601,0)
GPGPU-Sim uArch: Shader 9 finished CTA #5 (1602,0), 5 CTAs running
GPGPU-Sim uArch: Shader 9 finished CTA #0 (1602,0), 4 CTAs running
GPGPU-Sim uArch: Shader 9 finished CTA #1 (1602,0), 3 CTAs running
GPGPU-Sim uArch: Shader 9 finished CTA #2 (1602,0), 2 CTAs running
GPGPU-Sim uArch: Shader 9 finished CTA #3 (1602,0), 1 CTAs running
GPGPU-Sim uArch: core:  9, cta: 0 initialized @(1603,0)
GPGPU-Sim uArch: Shader 2 finished CTA #3 (1603,0), 5 CTAs running
GPGPU-Sim uArch: Shader 2 finished CTA #4 (1603,0), 4 CTAs running
GPGPU-Sim uArch: core:  2, cta: 3 initialized @(1604,0)
GPGPU-Sim uArch: core:  9, cta: 1 initialized @(1604,0)
GPGPU-Sim uArch: core:  2, cta: 4 initialized @(1605,0)
GPGPU-Sim uArch: core:  9, cta: 2 initialized @(1605,0)
GPGPU-Sim uArch: core:  9, cta: 3 initialized @(1606,0)
GPGPU-Sim uArch: core:  9, cta: 5 initialized @(1607,0)
GPGPU-Sim uArch: Shader 7 finished CTA #4 (1608,0), 5 CTAs running
GPGPU-Sim uArch: Shader 7 finished CTA #5 (1608,0), 4 CTAs running
GPGPU-Sim uArch: Shader 7 finished CTA #0 (1608,0), 3 CTAs running
GPGPU-Sim uArch: Shader 7 finished CTA #1 (1608,0), 2 CTAs running
GPGPU-Sim uArch: Shader 7 finished CTA #2 (1608,0), 1 CTAs running
GPGPU-Sim uArch: core:  7, cta: 0 initialized @(1609,0)
GPGPU-Sim uArch: core:  7, cta: 1 initialized @(1610,0)
GPGPU-Sim uArch: core:  7, cta: 2 initialized @(1611,0)
GPGPU-Sim uArch: core:  7, cta: 4 initialized @(1612,0)
GPGPU-Sim uArch: Shader 8 finished CTA #0 (1612,0), 5 CTAs running
GPGPU-Sim uArch: core:  8, cta: 0 initialized @(1613,0)
GPGPU-Sim uArch: core:  7, cta: 5 initialized @(1613,0)
GPGPU-Sim uArch: Shader 11 finished CTA #4 (1614,0), 5 CTAs running
GPGPU-Sim uArch: Shader 11 finished CTA #5 (1614,0), 4 CTAs running
GPGPU-Sim uArch: Shader 11 finished CTA #0 (1614,0), 3 CTAs running
GPGPU-Sim uArch: Shader 11 finished CTA #1 (1614,0), 2 CTAs running
GPGPU-Sim uArch: Shader 11 finished CTA #2 (1614,0), 1 CTAs running
GPGPU-Sim uArch: core: 11, cta: 0 initialized @(1615,0)
GPGPU-Sim uArch: Shader 12 finished CTA #3 (1615,0), 5 CTAs running
GPGPU-Sim uArch: Shader 12 finished CTA #4 (1615,0), 4 CTAs running
GPGPU-Sim uArch: core: 12, cta: 3 initialized @(1616,0)
GPGPU-Sim uArch: core: 11, cta: 1 initialized @(1616,0)
GPGPU-Sim uArch: Shader 10 finished CTA #4 (1616,0), 5 CTAs running
GPGPU-Sim uArch: core: 12, cta: 4 initialized @(1617,0)
GPGPU-Sim uArch: core: 10, cta: 4 initialized @(1617,0)
GPGPU-Sim uArch: core: 11, cta: 2 initialized @(1617,0)
GPGPU-Sim uArch: core: 11, cta: 4 initialized @(1618,0)
GPGPU-Sim uArch: core: 11, cta: 5 initialized @(1619,0)
GPGPU-Sim uArch: Shader 13 finished CTA #5 (1620,0), 5 CTAs running
GPGPU-Sim uArch: Shader 13 finished CTA #0 (1620,0), 4 CTAs running
GPGPU-Sim uArch: Shader 13 finished CTA #1 (1620,0), 3 CTAs running
GPGPU-Sim uArch: Shader 13 finished CTA #2 (1620,0), 2 CTAs running
GPGPU-Sim uArch: Shader 13 finished CTA #3 (1620,0), 1 CTAs running
GPGPU-Sim uArch: core: 13, cta: 0 initialized @(1621,0)
GPGPU-Sim uArch: core: 13, cta: 1 initialized @(1622,0)
GPGPU-Sim uArch: core: 13, cta: 2 initialized @(1623,0)
GPGPU-Sim uArch: core: 13, cta: 3 initialized @(1624,0)
GPGPU-Sim uArch: core: 13, cta: 5 initialized @(1625,0)
GPGPU-Sim uArch: Shader 14 finished CTA #4 (1626,0), 5 CTAs running
GPGPU-Sim uArch: Shader 14 finished CTA #5 (1626,0), 4 CTAs running
GPGPU-Sim uArch: Shader 14 finished CTA #0 (1626,0), 3 CTAs running
GPGPU-Sim uArch: Shader 14 finished CTA #1 (1626,0), 2 CTAs running
GPGPU-Sim uArch: core: 14, cta: 0 initialized @(1627,0)
GPGPU-Sim uArch: core: 14, cta: 1 initialized @(1628,0)
GPGPU-Sim uArch: Shader 8 finished CTA #3 (1628,0), 5 CTAs running
GPGPU-Sim uArch: core:  8, cta: 3 initialized @(1629,0)
GPGPU-Sim uArch: core: 14, cta: 4 initialized @(1629,0)
GPGPU-Sim uArch: core: 14, cta: 5 initialized @(1630,0)
GPGPU-Sim uArch: Shader 7 finished CTA #3 (1633,0), 5 CTAs running
GPGPU-Sim uArch: core:  7, cta: 3 initialized @(1634,0)
GPGPU-Sim uArch: Shader 9 finished CTA #4 (1635,0), 5 CTAs running
GPGPU-Sim uArch: core:  9, cta: 4 initialized @(1636,0)
GPGPU-Sim uArch: Shader 11 finished CTA #3 (1639,0), 5 CTAs running
GPGPU-Sim uArch: core: 11, cta: 3 initialized @(1640,0)
GPGPU-Sim uArch: Shader 14 finished CTA #2 (1643,0), 5 CTAs running
GPGPU-Sim uArch: Shader 14 finished CTA #3 (1643,0), 4 CTAs running
GPGPU-Sim uArch: core: 14, cta: 2 initialized @(1644,0)
GPGPU-Sim uArch: core: 14, cta: 3 initialized @(1645,0)
GPGPU-Sim uArch: Shader 13 finished CTA #4 (1653,0), 5 CTAs running
GPGPU-Sim uArch: core: 13, cta: 4 initialized @(1654,0)
GPGPU-Sim PTX: 700000 instructions simulated : ctaid=(144,0,0) tid=(22,0,0)
GPGPU-Sim PTX: 800000 instructions simulated : ctaid=(136,0,0) tid=(22,0,0)
GPGPU-Sim PTX: 900000 instructions simulated : ctaid=(152,0,0) tid=(78,0,0)
GPGPU-Sim uArch: cycles simulated: 2000  inst.: 934958 (ipc=467.5) sim_rate=467479 (inst/sec) elapsed = 0:0:00:02 / Fri Mar 19 13:37:59 2021
GPGPU-Sim PTX: 1000000 instructions simulated : ctaid=(154,0,0) tid=(206,0,0)
GPGPU-Sim uArch: Shader 1 finished CTA #5 (2015,0), 5 CTAs running
GPGPU-Sim uArch: core:  1, cta: 5 initialized @(2016,0)
GPGPU-Sim uArch: Shader 0 finished CTA #0 (2030,0), 5 CTAs running
GPGPU-Sim uArch: core:  0, cta: 0 initialized @(2031,0)
GPGPU-Sim uArch: Shader 4 finished CTA #0 (2032,0), 5 CTAs running
GPGPU-Sim uArch: core:  4, cta: 0 initialized @(2033,0)
GPGPU-Sim uArch: Shader 5 finished CTA #0 (2046,0), 5 CTAs running
GPGPU-Sim uArch: core:  5, cta: 0 initialized @(2047,0)
GPGPU-Sim uArch: Shader 3 finished CTA #0 (2051,0), 5 CTAs running
GPGPU-Sim uArch: core:  3, cta: 0 initialized @(2052,0)
GPGPU-Sim uArch: Shader 6 finished CTA #0 (2053,0), 5 CTAs running
GPGPU-Sim uArch: core:  6, cta: 0 initialized @(2054,0)
GPGPU-Sim uArch: Shader 2 finished CTA #0 (2060,0), 5 CTAs running
GPGPU-Sim uArch: core:  2, cta: 0 initialized @(2061,0)
GPGPU-Sim uArch: Shader 10 finished CTA #0 (2066,0), 5 CTAs running
GPGPU-Sim uArch: core: 10, cta: 0 initialized @(2067,0)
GPGPU-Sim uArch: Shader 9 finished CTA #0 (2085,0), 5 CTAs running
GPGPU-Sim uArch: core:  9, cta: 0 initialized @(2086,0)
GPGPU-Sim uArch: Shader 1 finished CTA #1 (2089,0), 5 CTAs running
GPGPU-Sim uArch: core:  1, cta: 1 initialized @(2090,0)
GPGPU-Sim uArch: Shader 8 finished CTA #4 (2090,0), 5 CTAs running
GPGPU-Sim uArch: core:  8, cta: 4 initialized @(2091,0)
GPGPU-Sim uArch: Shader 12 finished CTA #0 (2091,0), 5 CTAs running
GPGPU-Sim uArch: core: 12, cta: 0 initialized @(2092,0)
GPGPU-Sim uArch: Shader 0 finished CTA #1 (2110,0), 5 CTAs running
GPGPU-Sim uArch: Shader 11 finished CTA #0 (2110,0), 5 CTAs running
GPGPU-Sim uArch: core:  0, cta: 1 initialized @(2111,0)
GPGPU-Sim uArch: core: 11, cta: 0 initialized @(2111,0)
GPGPU-Sim uArch: Shader 5 finished CTA #1 (2116,0), 5 CTAs running
GPGPU-Sim uArch: core:  5, cta: 1 initialized @(2117,0)
GPGPU-Sim uArch: Shader 7 finished CTA #0 (2117,0), 5 CTAs running
GPGPU-Sim uArch: core:  7, cta: 0 initialized @(2118,0)
GPGPU-Sim uArch: Shader 4 finished CTA #2 (2118,0), 5 CTAs running
GPGPU-Sim uArch: Shader 14 finished CTA #0 (2118,0), 5 CTAs running
GPGPU-Sim uArch: core: 14, cta: 0 initialized @(2119,0)
GPGPU-Sim uArch: core:  4, cta: 2 initialized @(2119,0)
GPGPU-Sim uArch: Shader 13 finished CTA #0 (2120,0), 5 CTAs running
GPGPU-Sim uArch: core: 13, cta: 0 initialized @(2121,0)
GPGPU-Sim PTX: 1100000 instructions simulated : ctaid=(111,0,0) tid=(14,0,0)
GPGPU-Sim uArch: Shader 6 finished CTA #1 (2123,0), 5 CTAs running
GPGPU-Sim uArch: core:  6, cta: 1 initialized @(2124,0)
GPGPU-Sim uArch: Shader 3 finished CTA #1 (2133,0), 5 CTAs running
GPGPU-Sim uArch: core:  3, cta: 1 initialized @(2134,0)
GPGPU-Sim uArch: Shader 2 finished CTA #1 (2138,0), 5 CTAs running
GPGPU-Sim uArch: core:  2, cta: 1 initialized @(2139,0)
GPGPU-Sim uArch: Shader 10 finished CTA #5 (2148,0), 5 CTAs running
GPGPU-Sim uArch: core: 10, cta: 5 initialized @(2149,0)
GPGPU-Sim uArch: Shader 9 finished CTA #1 (2151,0), 5 CTAs running
GPGPU-Sim uArch: core:  9, cta: 1 initialized @(2152,0)
GPGPU-Sim uArch: Shader 12 finished CTA #1 (2159,0), 5 CTAs running
GPGPU-Sim uArch: core: 12, cta: 1 initialized @(2160,0)
GPGPU-Sim uArch: Shader 8 finished CTA #5 (2162,0), 5 CTAs running
GPGPU-Sim uArch: core:  8, cta: 5 initialized @(2163,0)
GPGPU-Sim uArch: Shader 7 finished CTA #1 (2163,0), 5 CTAs running
GPGPU-Sim uArch: core:  7, cta: 1 initialized @(2164,0)
GPGPU-Sim uArch: Shader 1 finished CTA #2 (2175,0), 5 CTAs running
GPGPU-Sim uArch: Shader 13 finished CTA #1 (2175,0), 5 CTAs running
GPGPU-Sim uArch: core: 13, cta: 1 initialized @(2176,0)
GPGPU-Sim uArch: core:  1, cta: 2 initialized @(2176,0)
GPGPU-Sim uArch: Shader 14 finished CTA #1 (2182,0), 5 CTAs running
GPGPU-Sim uArch: core: 14, cta: 1 initialized @(2183,0)
GPGPU-Sim uArch: Shader 11 finished CTA #1 (2185,0), 5 CTAs running
GPGPU-Sim uArch: core: 11, cta: 1 initialized @(2186,0)
GPGPU-Sim uArch: Shader 0 finished CTA #5 (2188,0), 5 CTAs running
GPGPU-Sim uArch: core:  0, cta: 5 initialized @(2189,0)
GPGPU-Sim uArch: Shader 5 finished CTA #2 (2198,0), 5 CTAs running
GPGPU-Sim uArch: core:  5, cta: 2 initialized @(2199,0)
GPGPU-Sim uArch: Shader 4 finished CTA #4 (2199,0), 5 CTAs running
GPGPU-Sim uArch: core:  4, cta: 4 initialized @(2200,0)
GPGPU-Sim uArch: Shader 6 finished CTA #2 (2202,0), 5 CTAs running
GPGPU-Sim uArch: core:  6, cta: 2 initialized @(2203,0)
GPGPU-Sim uArch: Shader 3 finished CTA #2 (2220,0), 5 CTAs running
GPGPU-Sim uArch: core:  3, cta: 2 initialized @(2221,0)
GPGPU-Sim uArch: Shader 2 finished CTA #2 (2226,0), 5 CTAs running
GPGPU-Sim uArch: core:  2, cta: 2 initialized @(2227,0)
GPGPU-Sim uArch: Shader 12 finished CTA #2 (2228,0), 5 CTAs running
GPGPU-Sim uArch: core: 12, cta: 2 initialized @(2229,0)
GPGPU-Sim PTX: 1200000 instructions simulated : ctaid=(189,0,0) tid=(140,0,0)
GPGPU-Sim uArch: Shader 10 finished CTA #2 (2234,0), 5 CTAs running
GPGPU-Sim uArch: core: 10, cta: 2 initialized @(2235,0)
GPGPU-Sim uArch: Shader 9 finished CTA #2 (2237,0), 5 CTAs running
GPGPU-Sim uArch: core:  9, cta: 2 initialized @(2238,0)
GPGPU-Sim uArch: Shader 7 finished CTA #2 (2241,0), 5 CTAs running
GPGPU-Sim uArch: core:  7, cta: 2 initialized @(2242,0)
GPGPU-Sim uArch: Shader 8 finished CTA #1 (2252,0), 5 CTAs running
GPGPU-Sim uArch: core:  8, cta: 1 initialized @(2253,0)
GPGPU-Sim uArch: Shader 13 finished CTA #2 (2263,0), 5 CTAs running
GPGPU-Sim uArch: core: 13, cta: 2 initialized @(2264,0)
GPGPU-Sim uArch: Shader 11 finished CTA #2 (2269,0), 5 CTAs running
GPGPU-Sim uArch: core: 11, cta: 2 initialized @(2270,0)
GPGPU-Sim uArch: Shader 1 finished CTA #3 (2270,0), 5 CTAs running
GPGPU-Sim uArch: core:  1, cta: 3 initialized @(2271,0)
GPGPU-Sim uArch: Shader 14 finished CTA #4 (2272,0), 5 CTAs running
GPGPU-Sim uArch: core: 14, cta: 4 initialized @(2273,0)
GPGPU-Sim uArch: Shader 4 finished CTA #5 (2298,0), 5 CTAs running
GPGPU-Sim uArch: Shader 5 finished CTA #3 (2298,0), 5 CTAs running
GPGPU-Sim uArch: core:  4, cta: 5 initialized @(2299,0)
GPGPU-Sim uArch: core:  5, cta: 3 initialized @(2299,0)
GPGPU-Sim uArch: Shader 6 finished CTA #3 (2306,0), 5 CTAs running
GPGPU-Sim uArch: core:  6, cta: 3 initialized @(2307,0)
GPGPU-Sim uArch: Shader 3 finished CTA #4 (2307,0), 5 CTAs running
GPGPU-Sim uArch: core:  3, cta: 4 initialized @(2308,0)
GPGPU-Sim uArch: Shader 10 finished CTA #3 (2308,0), 5 CTAs running
GPGPU-Sim uArch: core: 10, cta: 3 initialized @(2309,0)
GPGPU-Sim uArch: Shader 0 finished CTA #2 (2310,0), 5 CTAs running
GPGPU-Sim uArch: core:  0, cta: 2 initialized @(2311,0)
GPGPU-Sim uArch: Shader 9 finished CTA #3 (2334,0), 5 CTAs running
GPGPU-Sim uArch: core:  9, cta: 3 initialized @(2335,0)
GPGPU-Sim uArch: Shader 8 finished CTA #2 (2338,0), 5 CTAs running
GPGPU-Sim uArch: core:  8, cta: 2 initialized @(2339,0)
GPGPU-Sim PTX: 1300000 instructions simulated : ctaid=(145,0,0) tid=(108,0,0)
GPGPU-Sim uArch: Shader 2 finished CTA #5 (2340,0), 5 CTAs running
GPGPU-Sim uArch: core:  2, cta: 5 initialized @(2341,0)
GPGPU-Sim uArch: Shader 12 finished CTA #5 (2342,0), 5 CTAs running
GPGPU-Sim uArch: core: 12, cta: 5 initialized @(2343,0)
GPGPU-Sim uArch: Shader 7 finished CTA #4 (2344,0), 5 CTAs running
GPGPU-Sim uArch: Shader 11 finished CTA #4 (2344,0), 5 CTAs running
GPGPU-Sim uArch: core:  7, cta: 4 initialized @(2345,0)
GPGPU-Sim uArch: core: 11, cta: 4 initialized @(2345,0)
GPGPU-Sim uArch: Shader 13 finished CTA #3 (2363,0), 5 CTAs running
GPGPU-Sim uArch: core: 13, cta: 3 initialized @(2364,0)
GPGPU-Sim uArch: Shader 14 finished CTA #5 (2374,0), 5 CTAs running
GPGPU-Sim uArch: core: 14, cta: 5 initialized @(2375,0)
GPGPU-Sim uArch: Shader 1 finished CTA #4 (2384,0), 5 CTAs running
GPGPU-Sim uArch: core:  1, cta: 4 initialized @(2385,0)
GPGPU-Sim uArch: Shader 9 finished CTA #5 (2428,0), 5 CTAs running
GPGPU-Sim uArch: core:  9, cta: 5 initialized @(2429,0)
GPGPU-Sim uArch: Shader 4 finished CTA #1 (2435,0), 5 CTAs running
GPGPU-Sim uArch: core:  4, cta: 1 initialized @(2436,0)
GPGPU-Sim uArch: Shader 0 finished CTA #3 (2436,0), 5 CTAs running
GPGPU-Sim uArch: core:  0, cta: 3 initialized @(2437,0)
GPGPU-Sim uArch: Shader 5 finished CTA #5 (2441,0), 5 CTAs running
GPGPU-Sim uArch: core:  5, cta: 5 initialized @(2442,0)
GPGPU-Sim uArch: Shader 3 finished CTA #5 (2446,0), 5 CTAs running
GPGPU-Sim uArch: core:  3, cta: 5 initialized @(2447,0)
GPGPU-Sim PTX: 1400000 instructions simulated : ctaid=(174,0,0) tid=(236,0,0)
GPGPU-Sim uArch: Shader 10 finished CTA #1 (2463,0), 5 CTAs running
GPGPU-Sim uArch: core: 10, cta: 1 initialized @(2464,0)
GPGPU-Sim uArch: Shader 11 finished CTA #5 (2469,0), 5 CTAs running
GPGPU-Sim uArch: core: 11, cta: 5 initialized @(2470,0)
GPGPU-Sim uArch: Shader 6 finished CTA #4 (2475,0), 5 CTAs running
GPGPU-Sim uArch: core:  6, cta: 4 initialized @(2476,0)
GPGPU-Sim uArch: Shader 2 finished CTA #3 (2492,0), 5 CTAs running
GPGPU-Sim uArch: core:  2, cta: 3 initialized @(2493,0)
GPGPU-Sim uArch: Shader 12 finished CTA #3 (2504,0), 5 CTAs running
GPGPU-Sim uArch: core: 12, cta: 3 initialized @(2505,0)
GPGPU-Sim uArch: Shader 13 finished CTA #5 (2509,0), 5 CTAs running
GPGPU-Sim uArch: core: 13, cta: 5 initialized @(2510,0)
GPGPU-Sim uArch: Shader 7 finished CTA #5 (2526,0), 5 CTAs running
GPGPU-Sim uArch: core:  7, cta: 5 initialized @(2527,0)
GPGPU-Sim uArch: Shader 8 finished CTA #0 (2527,0), 5 CTAs running
GPGPU-Sim uArch: core:  8, cta: 0 initialized @(2528,0)
GPGPU-Sim uArch: Shader 14 finished CTA #2 (2552,0), 5 CTAs running
GPGPU-Sim uArch: core: 14, cta: 2 initialized @(2553,0)
GPGPU-Sim PTX: 1500000 instructions simulated : ctaid=(216,0,0) tid=(138,0,0)
GPGPU-Sim uArch: Shader 1 finished CTA #5 (2589,0), 5 CTAs running
GPGPU-Sim uArch: core:  1, cta: 5 initialized @(2590,0)
GPGPU-Sim uArch: Shader 4 finished CTA #3 (2590,0), 5 CTAs running
GPGPU-Sim uArch: core:  4, cta: 3 initialized @(2591,0)
GPGPU-Sim uArch: Shader 0 finished CTA #4 (2592,0), 5 CTAs running
GPGPU-Sim uArch: Shader 3 finished CTA #3 (2619,0), 5 CTAs running
GPGPU-Sim uArch: Shader 5 finished CTA #4 (2619,0), 5 CTAs running
GPGPU-Sim uArch: Shader 6 finished CTA #5 (2624,0), 5 CTAs running
GPGPU-Sim uArch: Shader 10 finished CTA #4 (2633,0), 5 CTAs running
GPGPU-Sim uArch: Shader 2 finished CTA #4 (2638,0), 5 CTAs running
GPGPU-Sim uArch: Shader 12 finished CTA #4 (2642,0), 5 CTAs running
GPGPU-Sim uArch: Shader 11 finished CTA #3 (2647,0), 5 CTAs running
GPGPU-Sim uArch: Shader 9 finished CTA #4 (2653,0), 5 CTAs running
GPGPU-Sim uArch: Shader 13 finished CTA #4 (2658,0), 5 CTAs running
GPGPU-Sim PTX: 1600000 instructions simulated : ctaid=(239,0,0) tid=(170,0,0)
GPGPU-Sim uArch: Shader 8 finished CTA #3 (2669,0), 5 CTAs running
GPGPU-Sim uArch: Shader 14 finished CTA #3 (2669,0), 5 CTAs running
GPGPU-Sim uArch: Shader 7 finished CTA #3 (2674,0), 5 CTAs running
GPGPU-Sim uArch: Shader 1 finished CTA #1 (2679,0), 5 CTAs running
GPGPU-Sim uArch: Shader 5 finished CTA #0 (2709,0), 4 CTAs running
GPGPU-Sim uArch: Shader 0 finished CTA #0 (2710,0), 4 CTAs running
GPGPU-Sim uArch: Shader 9 finished CTA #0 (2724,0), 4 CTAs running
GPGPU-Sim uArch: Shader 6 finished CTA #0 (2725,0), 4 CTAs running
GPGPU-Sim uArch: Shader 3 finished CTA #0 (2735,0), 4 CTAs running
GPGPU-Sim uArch: Shader 4 finished CTA #0 (2738,0), 5 CTAs running
GPGPU-Sim uArch: Shader 2 finished CTA #0 (2742,0), 4 CTAs running
GPGPU-Sim uArch: Shader 10 finished CTA #0 (2742,0), 4 CTAs running
GPGPU-Sim uArch: Shader 12 finished CTA #0 (2751,0), 4 CTAs running
GPGPU-Sim uArch: Shader 13 finished CTA #0 (2760,0), 4 CTAs running
GPGPU-Sim uArch: Shader 11 finished CTA #0 (2765,0), 4 CTAs running
GPGPU-Sim uArch: Shader 7 finished CTA #0 (2766,0), 4 CTAs running
GPGPU-Sim uArch: Shader 8 finished CTA #4 (2776,0), 4 CTAs running
GPGPU-Sim uArch: Shader 14 finished CTA #0 (2777,0), 4 CTAs running
GPGPU-Sim PTX: 1700000 instructions simulated : ctaid=(232,0,0) tid=(230,0,0)
GPGPU-Sim uArch: Shader 5 finished CTA #1 (2797,0), 3 CTAs running
GPGPU-Sim uArch: Shader 10 finished CTA #5 (2798,0), 3 CTAs running
GPGPU-Sim uArch: Shader 0 finished CTA #1 (2807,0), 3 CTAs running
GPGPU-Sim uArch: Shader 6 finished CTA #1 (2810,0), 3 CTAs running
GPGPU-Sim uArch: Shader 9 finished CTA #1 (2810,0), 3 CTAs running
GPGPU-Sim uArch: Shader 1 finished CTA #2 (2813,0), 4 CTAs running
GPGPU-Sim uArch: Shader 4 finished CTA #2 (2817,0), 4 CTAs running
GPGPU-Sim uArch: Shader 2 finished CTA #1 (2828,0), 3 CTAs running
GPGPU-Sim uArch: Shader 7 finished CTA #1 (2831,0), 3 CTAs running
GPGPU-Sim uArch: Shader 3 finished CTA #1 (2833,0), 3 CTAs running
GPGPU-Sim uArch: Shader 12 finished CTA #1 (2834,0), 3 CTAs running
GPGPU-Sim uArch: Shader 1 finished CTA #3 (2865,0), 3 CTAs running
GPGPU-Sim uArch: Shader 8 finished CTA #5 (2869,0), 3 CTAs running
GPGPU-Sim uArch: Shader 13 finished CTA #1 (2875,0), 3 CTAs running
GPGPU-Sim uArch: Shader 11 finished CTA #1 (2876,0), 3 CTAs running
GPGPU-Sim uArch: Shader 10 finished CTA #2 (2891,0), 2 CTAs running
GPGPU-Sim uArch: Shader 14 finished CTA #1 (2891,0), 3 CTAs running
GPGPU-Sim uArch: Shader 3 finished CTA #2 (2908,0), 2 CTAs running
GPGPU-Sim uArch: Shader 0 finished CTA #5 (2910,0), 2 CTAs running
GPGPU-Sim uArch: Shader 4 finished CTA #4 (2913,0), 3 CTAs running
GPGPU-Sim uArch: Shader 9 finished CTA #2 (2921,0), 2 CTAs running
GPGPU-Sim uArch: Shader 5 finished CTA #2 (2924,0), 2 CTAs running
GPGPU-Sim uArch: Shader 6 finished CTA #2 (2927,0), 2 CTAs running
GPGPU-Sim uArch: Shader 2 finished CTA #2 (2930,0), 2 CTAs running
GPGPU-Sim uArch: Shader 7 finished CTA #2 (2934,0), 2 CTAs running
GPGPU-Sim uArch: Shader 11 finished CTA #2 (2940,0), 2 CTAs running
GPGPU-Sim uArch: Shader 1 finished CTA #4 (2950,0), 2 CTAs running
GPGPU-Sim uArch: Shader 12 finished CTA #2 (2954,0), 2 CTAs running
GPGPU-Sim uArch: Shader 0 finished CTA #2 (2959,0), 1 CTAs running
GPGPU-Sim uArch: Shader 8 finished CTA #1 (2959,0), 2 CTAs running
GPGPU-Sim uArch: Shader 4 finished CTA #5 (2979,0), 2 CTAs running
GPGPU-Sim PTX: 1800000 instructions simulated : ctaid=(245,0,0) tid=(230,0,0)
GPGPU-Sim uArch: Shader 3 finished CTA #4 (2986,0), 1 CTAs running
GPGPU-Sim uArch: Shader 14 finished CTA #4 (2990,0), 2 CTAs running
GPGPU-Sim uArch: Shader 12 finished CTA #5 (2991,0), 1 CTAs running
GPGPU-Sim uArch: Shader 13 finished CTA #2 (2991,0), 2 CTAs running
GPGPU-Sim uArch: cycles simulated: 3000  inst.: 1734965 (ipc=578.3) sim_rate=578321 (inst/sec) elapsed = 0:0:00:03 / Fri Mar 19 13:38:00 2021
GPGPU-Sim uArch: Shader 5 finished CTA #3 (3004,0), 1 CTAs running
GPGPU-Sim uArch: Shader 6 finished CTA #3 (3004,0), 1 CTAs running
GPGPU-Sim uArch: Shader 8 finished CTA #2 (3005,0), 1 CTAs running
GPGPU-Sim uArch: Shader 2 finished CTA #5 (3009,0), 1 CTAs running
GPGPU-Sim uArch: Shader 9 finished CTA #3 (3014,0), 1 CTAs running
GPGPU-Sim uArch: Shader 14 finished CTA #5 (3019,0), 1 CTAs running
GPGPU-Sim uArch: Shader 7 finished CTA #4 (3022,0), 1 CTAs running
GPGPU-Sim uArch: Shader 10 finished CTA #3 (3032,0), 1 CTAs running
GPGPU-Sim uArch: Shader 0 finished CTA #3 (3042,0), 0 CTAs running
GPGPU-Sim uArch: Shader 0 empty (release kernel 1 '_Z6KernelP4NodePiPbS2_S1_S2_i').
GPGPU-Sim uArch: Shader 5 finished CTA #5 (3044,0), 0 CTAs running
GPGPU-Sim uArch: Shader 5 empty (release kernel 1 '_Z6KernelP4NodePiPbS2_S1_S2_i').
GPGPU-Sim uArch: Shader 13 finished CTA #3 (3046,0), 1 CTAs running
GPGPU-Sim uArch: Shader 10 finished CTA #1 (3056,0), 0 CTAs running
GPGPU-Sim uArch: Shader 10 empty (release kernel 1 '_Z6KernelP4NodePiPbS2_S1_S2_i').
GPGPU-Sim uArch: Shader 3 finished CTA #5 (3057,0), 0 CTAs running
GPGPU-Sim uArch: Shader 3 empty (release kernel 1 '_Z6KernelP4NodePiPbS2_S1_S2_i').
GPGPU-Sim uArch: Shader 11 finished CTA #4 (3064,0), 1 CTAs running
GPGPU-Sim uArch: Shader 6 finished CTA #4 (3069,0), 0 CTAs running
GPGPU-Sim uArch: Shader 6 empty (release kernel 1 '_Z6KernelP4NodePiPbS2_S1_S2_i').
GPGPU-Sim uArch: Shader 2 finished CTA #3 (3071,0), 0 CTAs running
GPGPU-Sim uArch: Shader 2 empty (release kernel 1 '_Z6KernelP4NodePiPbS2_S1_S2_i').
GPGPU-Sim uArch: Shader 1 finished CTA #5 (3076,0), 1 CTAs running
GPGPU-Sim uArch: Shader 4 finished CTA #1 (3081,0), 1 CTAs running
GPGPU-Sim uArch: Shader 12 finished CTA #3 (3082,0), 0 CTAs running
GPGPU-Sim uArch: Shader 12 empty (release kernel 1 '_Z6KernelP4NodePiPbS2_S1_S2_i').
GPGPU-Sim uArch: Shader 8 finished CTA #0 (3085,0), 0 CTAs running
GPGPU-Sim uArch: Shader 8 empty (release kernel 1 '_Z6KernelP4NodePiPbS2_S1_S2_i').
GPGPU-Sim uArch: Shader 11 finished CTA #5 (3092,0), 0 CTAs running
GPGPU-Sim uArch: Shader 11 empty (release kernel 1 '_Z6KernelP4NodePiPbS2_S1_S2_i').
GPGPU-Sim uArch: Shader 9 finished CTA #5 (3096,0), 0 CTAs running
GPGPU-Sim uArch: Shader 9 empty (release kernel 1 '_Z6KernelP4NodePiPbS2_S1_S2_i').
GPGPU-Sim uArch: Shader 7 finished CTA #5 (3103,0), 0 CTAs running
GPGPU-Sim uArch: Shader 7 empty (release kernel 1 '_Z6KernelP4NodePiPbS2_S1_S2_i').
GPGPU-Sim uArch: Shader 13 finished CTA #5 (3112,0), 0 CTAs running
GPGPU-Sim uArch: Shader 13 empty (release kernel 1 '_Z6KernelP4NodePiPbS2_S1_S2_i').
GPGPU-Sim uArch: Shader 14 finished CTA #2 (3120,0), 0 CTAs running
GPGPU-Sim uArch: Shader 14 empty (release kernel 1 '_Z6KernelP4NodePiPbS2_S1_S2_i').
GPGPU-Sim uArch: Shader 4 finished CTA #3 (3162,0), 0 CTAs running
GPGPU-Sim uArch: Shader 4 empty (release kernel 1 '_Z6KernelP4NodePiPbS2_S1_S2_i').
GPGPU-Sim uArch: Shader 1 finished CTA #0 (6109,0), 0 CTAs running
GPGPU-Sim uArch: Shader 1 empty (release kernel 1 '_Z6KernelP4NodePiPbS2_S1_S2_i').
GPGPU-Sim uArch: GPU detected kernel '_Z6KernelP4NodePiPbS2_S1_S2_i' finished on shader 1.
kernel_name = _Z6KernelP4NodePiPbS2_S1_S2_i 
kernel_launch_uid = 1 
gpu_sim_cycle = 6110
gpu_sim_insn = 1769667
gpu_ipc =     289.6345
gpu_tot_sim_cycle = 6110
gpu_tot_sim_insn = 1769667
gpu_tot_ipc =     289.6345
gpu_tot_issued_cta = 0
gpu_stall_dramfull = 326
gpu_stall_icnt2sh    = 552
gpu_total_sim_rate=589889

========= Core cache stats =========
L1I_cache:
	L1I_total_cache_accesses = 32270
	L1I_total_cache_misses = 1441
	L1I_total_cache_miss_rate = 0.0447
	L1I_total_cache_pending_hits = 0
	L1I_total_cache_reservation_fails = 6044
L1D_cache:
	L1D_cache_core[0]: Access = 136, Miss = 34, Miss_rate = 0.250, Pending_hits = 98, Reservation_fails = 0
	L1D_cache_core[1]: Access = 204, Miss = 68, Miss_rate = 0.333, Pending_hits = 103, Reservation_fails = 0
	L1D_cache_core[2]: Access = 136, Miss = 34, Miss_rate = 0.250, Pending_hits = 96, Reservation_fails = 0
	L1D_cache_core[3]: Access = 136, Miss = 34, Miss_rate = 0.250, Pending_hits = 97, Reservation_fails = 0
	L1D_cache_core[4]: Access = 144, Miss = 36, Miss_rate = 0.250, Pending_hits = 105, Reservation_fails = 0
	L1D_cache_core[5]: Access = 136, Miss = 34, Miss_rate = 0.250, Pending_hits = 99, Reservation_fails = 0
	L1D_cache_core[6]: Access = 136, Miss = 34, Miss_rate = 0.250, Pending_hits = 96, Reservation_fails = 0
	L1D_cache_core[7]: Access = 136, Miss = 34, Miss_rate = 0.250, Pending_hits = 97, Reservation_fails = 0
	L1D_cache_core[8]: Access = 136, Miss = 34, Miss_rate = 0.250, Pending_hits = 95, Reservation_fails = 0
	L1D_cache_core[9]: Access = 136, Miss = 34, Miss_rate = 0.250, Pending_hits = 95, Reservation_fails = 0
	L1D_cache_core[10]: Access = 136, Miss = 34, Miss_rate = 0.250, Pending_hits = 96, Reservation_fails = 0
	L1D_cache_core[11]: Access = 136, Miss = 34, Miss_rate = 0.250, Pending_hits = 98, Reservation_fails = 0
	L1D_cache_core[12]: Access = 136, Miss = 34, Miss_rate = 0.250, Pending_hits = 97, Reservation_fails = 0
	L1D_cache_core[13]: Access = 136, Miss = 34, Miss_rate = 0.250, Pending_hits = 96, Reservation_fails = 0
	L1D_cache_core[14]: Access = 136, Miss = 34, Miss_rate = 0.250, Pending_hits = 97, Reservation_fails = 0
	L1D_total_cache_accesses = 2116
	L1D_total_cache_misses = 546
	L1D_total_cache_miss_rate = 0.2580
	L1D_total_cache_pending_hits = 1465
	L1D_total_cache_reservation_fails = 0
	L1D_cache_data_port_util = 0.002
	L1D_cache_fill_port_util = 0.011
L1C_cache:
	L1C_total_cache_accesses = 14336
	L1C_total_cache_misses = 480
	L1C_total_cache_miss_rate = 0.0335
	L1C_total_cache_pending_hits = 0
	L1C_total_cache_reservation_fails = 3420
L1T_cache:
	L1T_total_cache_accesses = 0
	L1T_total_cache_misses = 0
	L1T_total_cache_pending_hits = 0
	L1T_total_cache_reservation_fails = 0

Total_core_cache_stats:
	Total_core_cache_stats_breakdown[GLOBAL_ACC_R][HIT] = 102
	Total_core_cache_stats_breakdown[GLOBAL_ACC_R][HIT_RESERVED] = 1465
	Total_core_cache_stats_breakdown[GLOBAL_ACC_R][MISS] = 523
	Total_core_cache_stats_breakdown[CONST_ACC_R][HIT] = 13856
	Total_core_cache_stats_breakdown[CONST_ACC_R][MISS] = 480
	Total_core_cache_stats_breakdown[CONST_ACC_R][RESERVATION_FAIL] = 3420
	Total_core_cache_stats_breakdown[GLOBAL_ACC_W][HIT] = 3
	Total_core_cache_stats_breakdown[GLOBAL_ACC_W][MISS] = 23
	Total_core_cache_stats_breakdown[INST_ACC_R][HIT] = 30829
	Total_core_cache_stats_breakdown[INST_ACC_R][MISS] = 1441
	Total_core_cache_stats_breakdown[INST_ACC_R][RESERVATION_FAIL] = 6044
Shader 0 warp_id issue ditsribution:
warp_id:
0, 1, 2, 3, 4, 5, 6, 7, 8, 9, 10, 11, 12, 13, 14, 15, 16, 17, 18, 19, 20, 21, 22, 23, 24, 25, 26, 27, 28, 29, 30, 31, 32, 33, 34, 35, 36, 37, 38, 39, 40, 41, 42, 43, 44, 45, 46, 47, 
distro:
84, 84, 84, 84, 84, 84, 84, 84, 84, 84, 84, 84, 84, 84, 84, 84, 84, 84, 84, 84, 84, 84, 84, 84, 84, 84, 84, 84, 84, 84, 84, 84, 56, 56, 56, 56, 56, 56, 56, 56, 84, 84, 84, 84, 84, 84, 84, 84, 
gpgpu_n_tot_thrd_icount = 1841600
gpgpu_n_tot_w_icount = 57550
gpgpu_n_stall_shd_mem = 3420
gpgpu_n_mem_read_local = 0
gpgpu_n_mem_write_local = 0
gpgpu_n_mem_read_global = 523
gpgpu_n_mem_write_global = 26
gpgpu_n_mem_texture = 0
gpgpu_n_mem_const = 15
gpgpu_n_load_insn  = 65578
gpgpu_n_store_insn = 26
gpgpu_n_shmem_insn = 0
gpgpu_n_tex_insn = 0
gpgpu_n_const_mem_insn = 0
gpgpu_n_param_mem_insn = 458752
gpgpu_n_shmem_bkconflict = 0
gpgpu_n_cache_bkconflict = 0
gpgpu_n_intrawarp_mshr_merge = 0
gpgpu_n_cmem_portconflict = 3420
gpgpu_stall_shd_mem[c_mem][bk_conf] = 3420
gpgpu_stall_shd_mem[c_mem][mshr_rc] = 0
gpgpu_stall_shd_mem[c_mem][icnt_rc] = 0
gpgpu_stall_shd_mem[c_mem][data_port_stall] = 0
gpgpu_stall_shd_mem[t_mem][mshr_rc] = 0
gpgpu_stall_shd_mem[t_mem][icnt_rc] = 0
gpgpu_stall_shd_mem[t_mem][data_port_stall] = 0
gpgpu_stall_shd_mem[s_mem][bk_conf] = 0
gpgpu_stall_shd_mem[gl_mem][bk_conf] = 0
gpgpu_stall_shd_mem[gl_mem][coal_stall] = 0
gpgpu_stall_shd_mem[gl_mem][data_port_stall] = 0
gpgpu_stall_shd_mem[g_mem_ld][mshr_rc] = 0
gpgpu_stall_shd_mem[g_mem_ld][icnt_rc] = 0
gpgpu_stall_shd_mem[g_mem_ld][wb_icnt_rc] = 0
gpgpu_stall_shd_mem[g_mem_ld][wb_rsrv_fail] = 0
gpgpu_stall_shd_mem[g_mem_st][mshr_rc] = 0
gpgpu_stall_shd_mem[g_mem_st][icnt_rc] = 0
gpgpu_stall_shd_mem[g_mem_st][wb_icnt_rc] = 0
gpgpu_stall_shd_mem[g_mem_st][wb_rsrv_fail] = 0
gpgpu_stall_shd_mem[l_mem_ld][mshr_rc] = 0
gpgpu_stall_shd_mem[l_mem_ld][icnt_rc] = 0
gpgpu_stall_shd_mem[l_mem_ld][wb_icnt_rc] = 0
gpgpu_stall_shd_mem[l_mem_ld][wb_rsrv_fail] = 0
gpgpu_stall_shd_mem[l_mem_st][mshr_rc] = 0
gpgpu_stall_shd_mem[l_mem_st][icnt_rc] = 0
gpgpu_stall_shd_mem[l_mem_ld][wb_icnt_rc] = 0
gpgpu_stall_shd_mem[l_mem_ld][wb_rsrv_fail] = 0
gpu_reg_bank_conflict_stalls = 0
Warp Occupancy Distribution:
Stall:10985	W0_Idle:16835	W0_Scoreboard:13260	W1:206	W2:0	W3:0	W4:0	W5:0	W6:0	W7:0	W8:0	W9:0	W10:0	W11:0	W12:0	W13:0	W14:0	W15:0	W16:0	W17:0	W18:0	W19:0	W20:0	W21:0	W22:0	W23:0	W24:0	W25:0	W26:0	W27:0	W28:0	W29:0	W30:0	W31:0	W32:57344
traffic_breakdown_coretomem[CONST_ACC_R] = 120 {8:15,}
traffic_breakdown_coretomem[GLOBAL_ACC_R] = 4184 {8:523,}
traffic_breakdown_coretomem[GLOBAL_ACC_W] = 1040 {40:26,}
traffic_breakdown_coretomem[INST_ACC_R] = 376 {8:47,}
traffic_breakdown_memtocore[CONST_ACC_R] = 1080 {72:15,}
traffic_breakdown_memtocore[GLOBAL_ACC_R] = 71128 {136:523,}
traffic_breakdown_memtocore[GLOBAL_ACC_W] = 208 {8:26,}
traffic_breakdown_memtocore[INST_ACC_R] = 6392 {136:47,}
maxmrqlatency = 70 
maxdqlatency = 0 
maxmflatency = 347 
averagemflatency = 267 
max_icnt2mem_latency = 36 
max_icnt2sh_latency = 6109 
mrq_lat_table:409 	24 	24 	32 	22 	36 	2 	0 	0 	0 	0 	0 	0 	0 	0 	0 	0 	0 	0 	0 	0 	0 	0 	0 	0 	0 	0 	0 	0 	0 	0 	0 	
dq_lat_table:0 	0 	0 	0 	0 	0 	0 	0 	0 	0 	0 	0 	0 	0 	0 	0 	0 	0 	0 	0 	0 	0 	0 	0 	0 	0 	0 	0 	0 	0 	0 	0 	
mf_lat_table:0 	0 	0 	0 	0 	0 	0 	30 	534 	0 	0 	0 	0 	0 	0 	0 	0 	0 	0 	0 	0 	0 	0 	0 	0 	0 	0 	0 	0 	0 	0 	0 	
icnt2mem_lat_table:0 	0 	0 	600 	8 	3 	0 	0 	0 	0 	0 	0 	0 	0 	0 	0 	0 	0 	0 	0 	0 	0 	0 	0 	
icnt2sh_lat_table:0 	0 	0 	382 	117 	39 	0 	0 	0 	0 	2 	8 	16 	0 	0 	0 	0 	0 	0 	0 	0 	0 	0 	0 	
mf_lat_pw_table:0 	0 	0 	0 	0 	0 	0 	5 	6 	0 	0 	0 	0 	0 	0 	0 	0 	0 	0 	0 	0 	0 	0 	0 	0 	0 	0 	0 	0 	0 	0 	0 	
maximum concurrent accesses to same row:
dram[0]:         1         0         0         0         0         0         0         0         0         0         0         0         0         0         0         0 
dram[1]:         0         0         0         0         0         0         0         0         0         0         0         0         0         0         0         0 
dram[2]:         0         0         0         0         0         0         0         0         0         0         0         0         0         0         0         0 
dram[3]:         0         0         0         0         0         0         0         0         0         0         0         0         0         0         0         0 
dram[4]:         0         0         0         0         0         0         0         0         0         0        20        22         0         0         0         0 
dram[5]:         0         0         0         0         0         0         0         0         0         0         0         0         0         0         0         0 
maximum service time to same row:
dram[0]:      2171         0      6091         0         0         0         0         0         0         0      1216      1201      1990      2032         0         0 
dram[1]:      1487         0         0         0         0         0         0         0         0         0      1204      1172      2141      2135         0      4179 
dram[2]:      1460         0         0      3300         0      1804         0         0         0      4504      1251      1197      2001      1490         0         0 
dram[3]:         0         0         0      5293         0      4897         0         0         0         0      1207      1210      1994      2007         0         0 
dram[4]:         0      4100         0         0         0      5688         0         0         0         0      1165      2491      2026      2051      3379         0 
dram[5]:         0         0         0         0         0         0         0         0         0         0      1225      1207      2057      2019      5766         0 
average row accesses per activate:
dram[0]:  1.000000      -nan  2.000000      -nan      -nan      -nan      -nan      -nan      -nan      -nan 20.000000 22.000000 22.000000 22.000000      -nan      -nan 
dram[1]:  2.000000      -nan      -nan      -nan      -nan      -nan      -nan      -nan      -nan      -nan 20.000000 22.000000 24.000000 22.000000      -nan  3.000000 
dram[2]:  1.000000      -nan      -nan  2.000000      -nan  1.000000      -nan      -nan      -nan  2.000000 20.000000 22.000000 22.000000 22.000000      -nan      -nan 
dram[3]:      -nan      -nan      -nan  2.000000      -nan  2.000000      -nan      -nan      -nan      -nan 20.000000 22.000000 22.000000 20.000000      -nan      -nan 
dram[4]:      -nan  2.000000      -nan      -nan      -nan  2.000000      -nan      -nan      -nan      -nan  6.250000 12.000000 22.000000 20.000000  2.000000      -nan 
dram[5]:      -nan      -nan      -nan      -nan      -nan      -nan      -nan      -nan      -nan      -nan 22.000000 22.000000 22.000000 20.000000  1.000000      -nan 
average row locality = 549/45 = 12.200000
number of total memory accesses made:
dram[0]:         0         0         0         0         0         0         0         0         0         0         0         0         0         0         0         0 
dram[1]:         0         0         0         0         0         0         0         0         0         0         0         0         0         0         0         0 
dram[2]:         0         0         0         0         0         0         0         0         0         0         0         0         0         0         0         0 
dram[3]:         0         0         0         0         0         0         0         0         0         0         0         0         0         0         0         0 
dram[4]:         0         0         0         0         0         0         0         0         0         0         0         0         0         0         0         0 
dram[5]:         0         0         0         0         0         0         0         0         0         0         0         0         0         0         0         0 
total accesses: 0
min_bank_accesses = 0!
min_chip_accesses = 0!
number of total read accesses:
dram[0]:         4         0         1         0         0         0         0         0         0         0        20        22        22        22         0         0 
dram[1]:         2         0         0         0         0         0         0         0         0         0        20        22        24        22         0         3 
dram[2]:         1         0         0         1         0         1         0         0         0         1        20        22        22        21         0         0 
dram[3]:         0         0         0         1         0         1         0         0         0         0        20        22        22        20         0         0 
dram[4]:         0         1         0         0         0         1         0         0         0         0        24        23        22        20         2         0 
dram[5]:         0         0         0         0         0         0         0         0         0         0        22        22        22        20         1         0 
total reads: 539
min_bank_accesses = 0!
chip skew: 93/86 = 1.08
number of total write accesses:
dram[0]:         0         0         1         0         0         0         0         0         0         0         0         0         0         0         0         0 
dram[1]:         0         0         0         0         0         0         0         0         0         0         0         0         0         0         0         0 
dram[2]:         0         0         0         1         0         0         0         0         0         1         0         0         0         1         0         0 
dram[3]:         0         0         0         1         0         1         0         0         0         0         0         0         0         0         0         0 
dram[4]:         0         1         0         0         0         1         0         0         0         0         1         1         0         0         0         0 
dram[5]:         0         0         0         0         0         0         0         0         0         0         0         0         0         0         0         0 
total reads: 10
min_bank_accesses = 0!
min_chip_accesses = 0!
average mf latency per bank:
dram[0]:       1048    none         125    none      none      none      none      none      none      none         268       287       273       260    none      none  
dram[1]:          0    none      none      none      none      none      none      none      none      none         281       273       259       260    none         261
dram[2]:          0    none      none         126    none         268    none      none      none         126       278       283       259       248    none      none  
dram[3]:     none      none      none         126    none         126    none      none      none      none         281       301       273       261    none      none  
dram[4]:     none         126    none      none      none         126    none      none      none      none         313       277       260       260       263    none  
dram[5]:     none      none      none      none      none      none      none      none      none      none         288       294       260       261       268    none  
maximum mf latency per bank:
dram[0]:        292         0       251         0         0         0         0         0         0         0       286       321       273       277         0         0
dram[1]:          0         0         0         0         0         0         0         0         0         0       299       306       269       272         0       268
dram[2]:          0         0         0       252         0       268         0         0         0       252       320       328       271       273         0         0
dram[3]:          0         0         0       252         0       252         0         0         0         0       306       322       278       279         0         0
dram[4]:          0       252         0         0         0       252         0         0         0         0       311       330       272       267       268         0
dram[5]:          0         0         0         0         0         0         0         0         0         0       341       347       268       281       268         0
Memory Partition 0: 
Cache L2_bank_000:
MSHR contents
MSHR: tag=0x80234400, atomic=0 1 entries : 0x7f7e6c9063a0 :  mf: uid= 58196, sid01:w00, part=0, addr=0x80234440, load , size=32, unknown  status = IN_PARTITION_DRAM (6107), 

Cache L2_bank_001:
MSHR contents

In Dram Latency Queue (total = 0): 
DRAM[0]: 16 bks, busW=4 BL=8 CL=12, tRRD=2 tCCD=6, tRCD=12 tRAS=28 tRP=12 tRC=40
n_cmd=8064 n_nop=7869 n_act=9 n_pre=3 n_req=92 n_rd=182 n_write=1 bw_util=0.04539
n_activity=1072 dram_eff=0.3414
bk0: 8a 7960i bk1: 0a 8059i bk2: 2a 8041i bk3: 0a 8062i bk4: 0a 8062i bk5: 0a 8062i bk6: 0a 8065i bk7: 0a 8065i bk8: 0a 8067i bk9: 0a 8067i bk10: 40a 7949i bk11: 44a 7860i bk12: 44a 7954i bk13: 44a 7928i bk14: 0a 8062i bk15: 0a 8062i 
dram_util_bins: 0 0 0 0 0 0 0 0 0 0
dram_eff_bins: 0 0 0 0 0 0 0 0 0 0
mrqq: max=7 avg=0.0758929
Memory Partition 1: 
Cache L2_bank_002:
MSHR contents

Cache L2_bank_003:
MSHR contents

In Dram Latency Queue (total = 0): 
DRAM[1]: 16 bks, busW=4 BL=8 CL=12, tRRD=2 tCCD=6, tRCD=12 tRAS=28 tRP=12 tRC=40
n_cmd=8064 n_nop=7872 n_act=6 n_pre=0 n_req=93 n_rd=186 n_write=0 bw_util=0.04613
n_activity=1073 dram_eff=0.3467
bk0: 4a 8039i bk1: 0a 8062i bk2: 0a 8063i bk3: 0a 8063i bk4: 0a 8063i bk5: 0a 8063i bk6: 0a 8063i bk7: 0a 8064i bk8: 0a 8065i bk9: 0a 8066i bk10: 40a 7956i bk11: 44a 7875i bk12: 48a 7951i bk13: 44a 7942i bk14: 0a 8062i bk15: 6a 8039i 
dram_util_bins: 0 0 0 0 0 0 0 0 0 0
dram_eff_bins: 0 0 0 0 0 0 0 0 0 0
mrqq: max=2 avg=0.0124008
Memory Partition 2: 
Cache L2_bank_004:
MSHR contents

Cache L2_bank_005:
MSHR contents

In Dram Latency Queue (total = 0): 
DRAM[2]: 16 bks, busW=4 BL=8 CL=12, tRRD=2 tCCD=6, tRCD=12 tRAS=28 tRP=12 tRC=40
n_cmd=8064 n_nop=7875 n_act=8 n_pre=0 n_req=92 n_rd=178 n_write=3 bw_util=0.04489
n_activity=1092 dram_eff=0.3315
bk0: 2a 8045i bk1: 0a 8064i bk2: 0a 8065i bk3: 2a 8042i bk4: 0a 8064i bk5: 2a 8048i bk6: 0a 8064i bk7: 0a 8066i bk8: 0a 8066i bk9: 2a 8044i bk10: 40a 7941i bk11: 44a 7855i bk12: 44a 7958i bk13: 42a 7930i bk14: 0a 8061i bk15: 0a 8061i 
dram_util_bins: 0 0 0 0 0 0 0 0 0 0
dram_eff_bins: 0 0 0 0 0 0 0 0 0 0
mrqq: max=9 avg=0.093998
Memory Partition 3: 
Cache L2_bank_006:
MSHR contents

Cache L2_bank_007:
MSHR contents

In Dram Latency Queue (total = 0): 
DRAM[3]: 16 bks, busW=4 BL=8 CL=12, tRRD=2 tCCD=6, tRCD=12 tRAS=28 tRP=12 tRC=40
n_cmd=8064 n_nop=7884 n_act=6 n_pre=0 n_req=88 n_rd=172 n_write=2 bw_util=0.04315
n_activity=928 dram_eff=0.375
bk0: 0a 8065i bk1: 0a 8066i bk2: 0a 8066i bk3: 2a 8043i bk4: 0a 8064i bk5: 2a 8042i bk6: 0a 8063i bk7: 0a 8063i bk8: 0a 8064i bk9: 0a 8064i bk10: 40a 7951i bk11: 44a 7861i bk12: 44a 7950i bk13: 40a 7943i bk14: 0a 8063i bk15: 0a 8063i 
dram_util_bins: 0 0 0 0 0 0 0 0 0 0
dram_eff_bins: 0 0 0 0 0 0 0 0 0 0
mrqq: max=7 avg=0.0823413
Memory Partition 4: 
Cache L2_bank_008:
MSHR contents

Cache L2_bank_009:
MSHR contents

In Dram Latency Queue (total = 0): 
DRAM[4]: 16 bks, busW=4 BL=8 CL=12, tRRD=2 tCCD=6, tRCD=12 tRAS=28 tRP=12 tRC=40
n_cmd=8064 n_nop=7859 n_act=11 n_pre=4 n_req=97 n_rd=186 n_write=4 bw_util=0.04712
n_activity=1228 dram_eff=0.3094
bk0: 0a 8062i bk1: 2a 8042i bk2: 0a 8063i bk3: 0a 8063i bk4: 0a 8063i bk5: 2a 8042i bk6: 0a 8066i bk7: 0a 8068i bk8: 0a 8069i bk9: 0a 8069i bk10: 48a 7855i bk11: 46a 7830i bk12: 44a 7946i bk13: 40a 7954i bk14: 4a 8038i bk15: 0a 8059i 
dram_util_bins: 0 0 0 0 0 0 0 0 0 0
dram_eff_bins: 0 0 0 0 0 0 0 0 0 0
mrqq: max=5 avg=0.0656002
Memory Partition 5: 
Cache L2_bank_010:
MSHR contents

Cache L2_bank_011:
MSHR contents

In Dram Latency Queue (total = 0): 
DRAM[5]: 16 bks, busW=4 BL=8 CL=12, tRRD=2 tCCD=6, tRCD=12 tRAS=28 tRP=12 tRC=40
n_cmd=8064 n_nop=7885 n_act=5 n_pre=0 n_req=87 n_rd=174 n_write=0 bw_util=0.04315
n_activity=921 dram_eff=0.3779
bk0: 0a 8060i bk1: 0a 8062i bk2: 0a 8063i bk3: 0a 8063i bk4: 0a 8063i bk5: 0a 8063i bk6: 0a 8064i bk7: 0a 8065i bk8: 0a 8067i bk9: 0a 8068i bk10: 44a 7934i bk11: 44a 7852i bk12: 44a 7955i bk13: 40a 7933i bk14: 2a 8045i bk15: 0a 8060i 
dram_util_bins: 0 0 0 0 0 0 0 0 0 0
dram_eff_bins: 0 0 0 0 0 0 0 0 0 0
mrqq: max=11 avg=0.111359

========= L2 cache stats =========
L2_cache_bank[0]: Access = 91, Miss = 47, Miss_rate = 0.516, Pending_hits = 9, Reservation_fails = 342
L2_cache_bank[1]: Access = 44, Miss = 44, Miss_rate = 1.000, Pending_hits = 0, Reservation_fails = 0
L2_cache_bank[2]: Access = 47, Miss = 46, Miss_rate = 0.979, Pending_hits = 0, Reservation_fails = 0
L2_cache_bank[3]: Access = 47, Miss = 47, Miss_rate = 1.000, Pending_hits = 0, Reservation_fails = 0
L2_cache_bank[4]: Access = 57, Miss = 43, Miss_rate = 0.754, Pending_hits = 3, Reservation_fails = 83
L2_cache_bank[5]: Access = 46, Miss = 46, Miss_rate = 1.000, Pending_hits = 0, Reservation_fails = 0
L2_cache_bank[6]: Access = 45, Miss = 42, Miss_rate = 0.933, Pending_hits = 0, Reservation_fails = 0
L2_cache_bank[7]: Access = 46, Miss = 44, Miss_rate = 0.957, Pending_hits = 0, Reservation_fails = 0
L2_cache_bank[8]: Access = 56, Miss = 48, Miss_rate = 0.857, Pending_hits = 0, Reservation_fails = 0
L2_cache_bank[9]: Access = 45, Miss = 45, Miss_rate = 1.000, Pending_hits = 0, Reservation_fails = 0
L2_cache_bank[10]: Access = 45, Miss = 45, Miss_rate = 1.000, Pending_hits = 0, Reservation_fails = 0
L2_cache_bank[11]: Access = 42, Miss = 42, Miss_rate = 1.000, Pending_hits = 0, Reservation_fails = 0
L2_total_cache_accesses = 611
L2_total_cache_misses = 539
L2_total_cache_miss_rate = 0.8822
L2_total_cache_pending_hits = 12
L2_total_cache_reservation_fails = 425
L2_total_cache_breakdown:
	L2_cache_stats_breakdown[GLOBAL_ACC_R][MISS] = 523
	L2_cache_stats_breakdown[CONST_ACC_R][HIT] = 11
	L2_cache_stats_breakdown[CONST_ACC_R][HIT_RESERVED] = 3
	L2_cache_stats_breakdown[CONST_ACC_R][MISS] = 1
	L2_cache_stats_breakdown[CONST_ACC_R][RESERVATION_FAIL] = 109
	L2_cache_stats_breakdown[GLOBAL_ACC_W][HIT] = 16
	L2_cache_stats_breakdown[GLOBAL_ACC_W][MISS] = 10
	L2_cache_stats_breakdown[INST_ACC_R][HIT] = 33
	L2_cache_stats_breakdown[INST_ACC_R][HIT_RESERVED] = 9
	L2_cache_stats_breakdown[INST_ACC_R][MISS] = 5
	L2_cache_stats_breakdown[INST_ACC_R][RESERVATION_FAIL] = 316
L2_cache_data_port_util = 0.002
L2_cache_fill_port_util = 0.029

icnt_total_pkts_mem_to_simt=2921
icnt_total_pkts_simt_to_mem=637
LD_mem_lat_dist  0 0 0 0 0 0 0 0 0 0 0 0 0 0 0 0 0 0 0 0 0 0 0 0 0 0 0
ST_mem_lat_dist  0 0 0 0 0 0 0 0 0 0 0 0 0 0 0 0 0 0 0 0 0 0 0 0 0 0 0
----------------------------Interconnect-DETAILS--------------------------------
Class 0:
Packet latency average = 10.4223
	minimum = 6
	maximum = 44
Network latency average = 9.62193
	minimum = 6
	maximum = 34
Slowest packet = 14
Flit latency average = 8.27375
	minimum = 6
	maximum = 34
Slowest flit = 14
Fragmentation average = 0
	minimum = 0
	maximum = 0
Injected packet rate average = 0.00740741
	minimum = 0.00621931 (at node 0)
	maximum = 0.0148936 (at node 15)
Accepted packet rate average = 0.00740741
	minimum = 0.00621931 (at node 0)
	maximum = 0.0148936 (at node 15)
Injected flit rate average = 0.0215676
	minimum = 0.00621931 (at node 0)
	maximum = 0.0675941 (at node 15)
Accepted flit rate average= 0.0215676
	minimum = 0.00687398 (at node 26)
	maximum = 0.0456628 (at node 1)
Injected packet length average = 2.91162
Accepted packet length average = 2.91162
Total in-flight flits = 0 (0 measured)
====== Overall Traffic Statistics ======
====== Traffic class 0 ======
Packet latency average = 10.4223 (1 samples)
	minimum = 6 (1 samples)
	maximum = 44 (1 samples)
Network latency average = 9.62193 (1 samples)
	minimum = 6 (1 samples)
	maximum = 34 (1 samples)
Flit latency average = 8.27375 (1 samples)
	minimum = 6 (1 samples)
	maximum = 34 (1 samples)
Fragmentation average = 0 (1 samples)
	minimum = 0 (1 samples)
	maximum = 0 (1 samples)
Injected packet rate average = 0.00740741 (1 samples)
	minimum = 0.00621931 (1 samples)
	maximum = 0.0148936 (1 samples)
Accepted packet rate average = 0.00740741 (1 samples)
	minimum = 0.00621931 (1 samples)
	maximum = 0.0148936 (1 samples)
Injected flit rate average = 0.0215676 (1 samples)
	minimum = 0.00621931 (1 samples)
	maximum = 0.0675941 (1 samples)
[...]
traffic_breakdown_coretomem[CONST_ACC_R] = 120 {8:15,}
traffic_breakdown_coretomem[GLOBAL_ACC_R] = 4936776 {8:617097,}
traffic_breakdown_coretomem[GLOBAL_ACC_W] = 16663000 {40:415684,72:87,136:216,}
traffic_breakdown_coretomem[INST_ACC_R] = 600 {8:75,}
traffic_breakdown_memtocore[CONST_ACC_R] = 1080 {72:15,}
traffic_breakdown_memtocore[GLOBAL_ACC_R] = 83925192 {136:617097,}
traffic_breakdown_memtocore[GLOBAL_ACC_W] = 3327896 {8:415987,}
traffic_breakdown_memtocore[INST_ACC_R] = 10200 {136:75,}
maxmrqlatency = 539 
maxdqlatency = 0 
maxmflatency = 1153 
averagemflatency = 395 
max_icnt2mem_latency = 940 
max_icnt2sh_latency = 756774 
mrq_lat_table:41670 	3756 	1125 	3464 	4719 	986 	709 	255 	12 	1 	0 	0 	0 	0 	0 	0 	0 	0 	0 	0 	0 	0 	0 	0 	0 	0 	0 	0 	0 	0 	0 	0 	
dq_lat_table:0 	0 	0 	0 	0 	0 	0 	0 	0 	0 	0 	0 	0 	0 	0 	0 	0 	0 	0 	0 	0 	0 	0 	0 	0 	0 	0 	0 	0 	0 	0 	0 	
mf_lat_table:0 	0 	0 	0 	0 	0 	0 	131031 	717586 	184450 	32 	0 	0 	0 	0 	0 	0 	0 	0 	0 	0 	0 	0 	0 	0 	0 	0 	0 	0 	0 	0 	0 	
icnt2mem_lat_table:0 	0 	0 	88447 	30712 	74848 	327669 	247277 	260680 	3541 	0 	0 	0 	0 	0 	0 	0 	0 	0 	0 	0 	0 	0 	0 	
icnt2sh_lat_table:0 	0 	0 	36535 	291045 	271545 	17919 	68 	0 	0 	2 	8 	31 	586 	8114 	18617 	44730 	101106 	175197 	67596 	0 	0 	0 	0 	
mf_lat_pw_table:0 	0 	0 	0 	0 	0 	0 	99 	1418 	2 	0 	0 	0 	0 	0 	0 	0 	0 	0 	0 	0 	0 	0 	0 	0 	0 	0 	0 	0 	0 	0 	0 	
maximum concurrent accesses to same row:
dram[0]:        28        26        29        17        30        28        32        43        40        29        31        32        38        34        35        35 
dram[1]:        31        32        31        27        22        16        28        24        30        22        24        26        37        33        41        42 
dram[2]:        29        29        32        26        31        32        32        32        38        24        26        25        37        42        42        34 
dram[3]:        27        33        37        30        34        26        30        23        26        26        20        22        34        35        33        32 
dram[4]:        32        33        30        31        30        33        32        33        32        34        23        22        35        36        33        33 
dram[5]:        22        24        25        29        20        23        31        29        32        26        22        30        31        27        32        32 
maximum service time to same row:
dram[0]:     62356     70806     52250     82718     72192     58304     41551     59309     72312     73675     56752     51980     81511     91659     85048     89086 
dram[1]:     67994     66119     97852     62027     58972     57145     55482     60383     89985     81224     53340     44974    114812    123605     80025     96615 
dram[2]:     70672     52975     73749     74573     68388     45542     48012     64597     69828     69823     60038     97433     66191     66273    144967     91023 
dram[3]:     68931     41546    122470     98807     61350     60346     50723     59494     48512     46384     45902     52458     81213    127779     73509     71829 
dram[4]:     63076     63184     54578     63655     88541     94335     81259     68509     49855     67279     95568     42100     87978     68802     86612     81183 
dram[5]:     44373     66718     81495    112623     63003     30998     76927     57364     54471     48934     55969     42454     96300    106565    137215    132086 
average row accesses per activate:
dram[0]:  3.540984  3.251208  3.491228  3.194595  4.058824  3.785714  3.623711  4.113772  4.371069  4.593548  3.112360  3.169312  5.000000  4.395833  8.404255  7.490566 
dram[1]:  3.965909  4.085714  3.446079  3.704402  3.352941  3.578947  3.216216  3.225664  3.480349  3.521327  3.329949  3.388572  3.955357  4.148148  5.753247  6.934426 
dram[2]:  4.074074  3.140845  4.416667  3.740964  4.022059  3.795031  4.643357  4.635714  3.562500  3.253394  2.902326  2.947368  4.339622  4.844444  8.200000  6.859649 
dram[3]:  3.371728  3.344828  3.532934  4.379562  4.126866  4.466667  4.383117  3.734043  3.315068  3.140969  2.752137  2.713693  4.045045  4.211538  7.410714  7.017241 
dram[4]:  4.522727  4.314286  3.314433  3.509091  3.803921  3.621302  4.219355  3.692308  4.485030  4.116279  3.870130  3.415205  4.134615  4.910112  6.655738  9.170732 
dram[5]:  3.629630  3.446154  3.166667  2.958974  3.681250  3.351955  4.012048  4.527027  3.366516  3.492823  3.235602  2.863636  4.062500  4.418367  8.413043  6.344262 
average row locality = 56697/14836 = 3.821583
number of total memory accesses made:
dram[0]:         0         0         0         0         0         0         0         0         0         0         0         0         0         0         0         0 
dram[1]:         0         0         0         0         0         0         0         0         0         0         0         0         0         0         0         0 
dram[2]:         0         0         0         0         0         0         0         0         0         0         0         0         0         0         0         0 
dram[3]:         0         0         0         0         0         0         0         0         0         0         0         0         0         0         0         0 
dram[4]:         0         0         0         0         0         0         0         0         0         0         0         0         0         0         0         0 
dram[5]:         0         0         0         0         0         0         0         0         0         0         0         0         0         0         0         0 
total accesses: 0
min_bank_accesses = 0!
min_chip_accesses = 0!
number of total read accesses:
dram[0]:       466       492       454       459       438       454       539       526       525       530       469       483       411       399       393       397 
dram[1]:       490       497       500       446       476       486       556       571       575       543       512       476       423       418       441       423 
dram[2]:       492       483       442       451       435       476       517       519       550       546       509       498       441       411       409       387 
dram[3]:       465       481       450       452       425       469       527       542       543       547       513       514       420       413       413       407 
dram[4]:       442       450       460       443       460       472       513       495       557       533       487       471       406       412       404       375 
dram[5]:       488       474       458       437       463       464       517       521       551       545       498       508       429       411       387       384 
total reads: 45330
bank skew: 575/375 = 1.53
chip skew: 7833/7380 = 1.06
number of total write accesses:
dram[0]:       182       181       143       132       114       129       164       161       170       182        85       116        19        23         2         0 
dram[1]:       208       218       203       143       151       126       158       158       222       200       144       117        20        30         2         0 
dram[2]:       168       186       141       170       112       135       147       130       191       173       115       118        19        25         1         4 
dram[3]:       179       198       140       148       128       134       148       160       183       166       131       140        29        25         2         0 
dram[4]:       155       154       183       136       122       140       141       129       192       175       109       113        24        25         2         1 
dram[5]:       198       198       150       140       126       136       149       149       193       185       120       122        26        22         0         3 
total reads: 11367
min_bank_accesses = 0!
chip skew: 2100/1801 = 1.17
average mf latency per bank:
dram[0]:       3244      3167      3804      3949      4316      3977      3452      3360      3149      3012      7901      7220     14898     15112     22691     22522
dram[1]:       3033      3136      3282      4222      3999      4187      3576      3562      2879      3063      6597      7790     14854     15241     20920     22520
dram[2]:       3217      3189      3789      3761      4431      3981      3575      3746      2982      3200      7050      7503     14054     15567     21590     23511
dram[3]:       3345      3108      3912      3832      4291      3992      3615      3517      3024      3081      6742      6933     14068     15255     21602     22857
dram[4]:       4422      3384      4569      4013      5454      4026      4813      3768      3938      3100     41680      7828     19484     15255     28775     24036
dram[5]:       3105      3269      3800      4116      3989      4088      3511      3594      2939      3134      7250      7549     13947     15801     22912     23951
maximum mf latency per bank:
dram[0]:        871       983       904       843       904       910       899       847       800      1020       870       998       879       939      1039      1082
dram[1]:       1043      1062      1009       918      1034      1020      1025      1012       955       946       998       919       911       932      1006       968
dram[2]:        923       928       933      1002       867      1020       861       932       827       910       946       953      1020       910       992       904
dram[3]:        846       941       920       933       878       949       871       930       908      1066       890       956      1004       924       968       962
dram[4]:       1064       940      1018      1025      1012      1036      1015       953      1124       959      1135       963      1071       992      1153       925
dram[5]:        943      1024       907       916       899       902       930       980       849       960       973       872       904       958       957      1070
Memory Partition 0: 
Cache L2_bank_000:
MSHR contents

Cache L2_bank_001:
MSHR contents

In Dram Latency Queue (total = 0): 
DRAM[0]: 16 bks, busW=4 BL=8 CL=12, tRRD=2 tCCD=6, tRCD=12 tRAS=28 tRP=12 tRC=40
n_cmd=1000969 n_nop=978742 n_act=2360 n_pre=2344 n_req=9238 n_rd=14870 n_write=2653 bw_util=0.03501
n_activity=148871 dram_eff=0.2354
bk0: 932a 991867i bk1: 984a 991127i bk2: 908a 992423i bk3: 918a 991978i bk4: 876a 993483i bk5: 908a 992284i bk6: 1078a 990497i bk7: 1052a 990520i bk8: 1050a 991588i bk9: 1060a 991081i bk10: 938a 991752i bk11: 966a 991462i bk12: 822a 995351i bk13: 798a 995317i bk14: 786a 996944i bk15: 794a 996875i 
dram_util_bins: 0 0 0 0 0 0 0 0 0 0
dram_eff_bins: 0 0 0 0 0 0 0 0 0 0
mrqq: max=16 avg=0.0769005
Memory Partition 1: 
Cache L2_bank_002:
MSHR contents

Cache L2_bank_003:
MSHR contents

In Dram Latency Queue (total = 0): 
DRAM[1]: 16 bks, busW=4 BL=8 CL=12, tRRD=2 tCCD=6, tRCD=12 tRAS=28 tRP=12 tRC=40
n_cmd=1000969 n_nop=976861 n_act=2690 n_pre=2674 n_req=9933 n_rd=15666 n_write=3078 bw_util=0.03745
n_activity=164061 dram_eff=0.2285
bk0: 980a 991857i bk1: 994a 991360i bk2: 1000a 990801i bk3: 892a 992766i bk4: 952a 991947i bk5: 972a 992281i bk6: 1112a 990156i bk7: 1142a 989653i bk8: 1150a 989208i bk9: 1086a 989471i bk10: 1024a 990697i bk11: 952a 991802i bk12: 846a 994935i bk13: 836a 995177i bk14: 882a 996409i bk15: 846a 996811i 
dram_util_bins: 0 0 0 0 0 0 0 0 0 0
dram_eff_bins: 0 0 0 0 0 0 0 0 0 0
mrqq: max=16 avg=0.0550487
Memory Partition 2: 
Cache L2_bank_004:
MSHR contents

Cache L2_bank_005:
MSHR contents

In Dram Latency Queue (total = 0): 
DRAM[2]: 16 bks, busW=4 BL=8 CL=12, tRRD=2 tCCD=6, tRCD=12 tRAS=28 tRP=12 tRC=40
n_cmd=1000969 n_nop=978337 n_act=2409 n_pre=2393 n_req=9401 n_rd=15132 n_write=2698 bw_util=0.03563
n_activity=150724 dram_eff=0.2366
bk0: 984a 992593i bk1: 966a 990998i bk2: 884a 993406i bk3: 902a 992114i bk4: 870a 993537i bk5: 952a 992056i bk6: 1034a 991648i bk7: 1038a 991832i bk8: 1100a 989656i bk9: 1092a 989517i bk10: 1018a 990655i bk11: 996a 990797i bk12: 882a 994840i bk13: 822a 995201i bk14: 818a 997055i bk15: 774a 997106i 
dram_util_bins: 0 0 0 0 0 0 0 0 0 0
dram_eff_bins: 0 0 0 0 0 0 0 0 0 0
mrqq: max=16 avg=0.0707205
Memory Partition 3: 
Cache L2_bank_006:
MSHR contents

Cache L2_bank_007:
MSHR contents

In Dram Latency Queue (total = 0): 
DRAM[3]: 16 bks, busW=4 BL=8 CL=12, tRRD=2 tCCD=6, tRCD=12 tRAS=28 tRP=12 tRC=40
n_cmd=1000969 n_nop=977909 n_act=2559 n_pre=2543 n_req=9492 n_rd=15162 n_write=2796 bw_util=0.03588
n_activity=155937 dram_eff=0.2303
bk0: 930a 991938i bk1: 962a 991022i bk2: 900a 992751i bk3: 904a 993284i bk4: 850a 993869i bk5: 938a 992950i bk6: 1054a 992318i bk7: 1084a 991029i bk8: 1086a 989467i bk9: 1094a 990027i bk10: 1026a 990505i bk11: 1028a 990476i bk12: 840a 994843i bk13: 826a 995166i bk14: 826a 996966i bk15: 814a 997169i 
dram_util_bins: 0 0 0 0 0 0 0 0 0 0
dram_eff_bins: 0 0 0 0 0 0 0 0 0 0
mrqq: max=12 avg=0.0482203
Memory Partition 4: 
Cache L2_bank_008:
MSHR contents

Cache L2_bank_009:
MSHR contents

In Dram Latency Queue (total = 0): 
DRAM[4]: 16 bks, busW=4 BL=8 CL=12, tRRD=2 tCCD=6, tRCD=12 tRAS=28 tRP=12 tRC=40
n_cmd=1000969 n_nop=979091 n_act=2236 n_pre=2220 n_req=9181 n_rd=14760 n_write=2662 bw_util=0.03481
n_activity=148862 dram_eff=0.2341
bk0: 884a 993274i bk1: 900a 992494i bk2: 920a 990985i bk3: 886a 992846i bk4: 920a 992852i bk5: 944a 991613i bk6: 1026a 990914i bk7: 990a 990879i bk8: 1114a 990027i bk9: 1066a 990025i bk10: 974a 992049i bk11: 942a 991620i bk12: 812a 994574i bk13: 824a 995254i bk14: 808a 996218i bk15: 750a 997042i 
dram_util_bins: 0 0 0 0 0 0 0 0 0 0
dram_eff_bins: 0 0 0 0 0 0 0 0 0 0
mrqq: max=16 avg=0.0847289
Memory Partition 5: 
Cache L2_bank_010:
MSHR contents

Cache L2_bank_011:
MSHR contents

In Dram Latency Queue (total = 0): 
DRAM[5]: 16 bks, busW=4 BL=8 CL=12, tRRD=2 tCCD=6, tRCD=12 tRAS=28 tRP=12 tRC=40
n_cmd=1000969 n_nop=977926 n_act=2582 n_pre=2566 n_req=9452 n_rd=15070 n_write=2825 bw_util=0.03576
n_activity=155612 dram_eff=0.23
bk0: 976a 991047i bk1: 948a 990501i bk2: 916a 992065i bk3: 874a 992206i bk4: 926a 992518i bk5: 928a 992076i bk6: 1034a 991339i bk7: 1042a 991640i bk8: 1102a 989580i bk9: 1090a 989751i bk10: 996a 991307i bk11: 1016a 990906i bk12: 858a 994732i bk13: 822a 995154i bk14: 774a 996974i bk15: 768a 996811i 
dram_util_bins: 0 0 0 0 0 0 0 0 0 0
dram_eff_bins: 0 0 0 0 0 0 0 0 0 0
mrqq: max=16 avg=0.0658392

========= L2 cache stats =========
L2_cache_bank[0]: Access = 82480, Miss = 3695, Miss_rate = 0.045, Pending_hits = 15, Reservation_fails = 480
L2_cache_bank[1]: Access = 82419, Miss = 3740, Miss_rate = 0.045, Pending_hits = 9, Reservation_fails = 483
L2_cache_bank[2]: Access = 82592, Miss = 3973, Miss_rate = 0.048, Pending_hits = 15, Reservation_fails = 1
L2_cache_bank[3]: Access = 83764, Miss = 3860, Miss_rate = 0.046, Pending_hits = 10, Reservation_fails = 1
L2_cache_bank[4]: Access = 82143, Miss = 3795, Miss_rate = 0.046, Pending_hits = 8, Reservation_fails = 96
L2_cache_bank[5]: Access = 82830, Miss = 3771, Miss_rate = 0.046, Pending_hits = 10, Reservation_fails = 236
L2_cache_bank[6]: Access = 82522, Miss = 3756, Miss_rate = 0.046, Pending_hits = 10, Reservation_fails = 1
L2_cache_bank[7]: Access = 83228, Miss = 3825, Miss_rate = 0.046, Pending_hits = 5, Reservation_fails = 1
L2_cache_bank[8]: Access = 120920, Miss = 3729, Miss_rate = 0.031, Pending_hits = 9, Reservation_fails = 321
L2_cache_bank[9]: Access = 83306, Miss = 3651, Miss_rate = 0.044, Pending_hits = 9, Reservation_fails = 573
L2_cache_bank[10]: Access = 83140, Miss = 3791, Miss_rate = 0.046, Pending_hits = 17, Reservation_fails = 75
L2_cache_bank[11]: Access = 83830, Miss = 3744, Miss_rate = 0.045, Pending_hits = 12, Reservation_fails = 0
L2_total_cache_accesses = 1033174
L2_total_cache_misses = 45330
L2_total_cache_miss_rate = 0.0439
L2_total_cache_pending_hits = 129
L2_total_cache_reservation_fails = 2268
L2_total_cache_breakdown:
	L2_cache_stats_breakdown[GLOBAL_ACC_R][HIT] = 577680
	L2_cache_stats_breakdown[GLOBAL_ACC_R][HIT_RESERVED] = 27
	L2_cache_stats_breakdown[GLOBAL_ACC_R][MISS] = 39390
	L2_cache_stats_breakdown[GLOBAL_ACC_R][RESERVATION_FAIL] = 1836
	L2_cache_stats_breakdown[CONST_ACC_R][HIT] = 11
	L2_cache_stats_breakdown[CONST_ACC_R][HIT_RESERVED] = 3
	L2_cache_stats_breakdown[CONST_ACC_R][MISS] = 1
	L2_cache_stats_breakdown[CONST_ACC_R][RESERVATION_FAIL] = 109
	L2_cache_stats_breakdown[GLOBAL_ACC_W][HIT] = 409963
	L2_cache_stats_breakdown[GLOBAL_ACC_W][HIT_RESERVED] = 90
	L2_cache_stats_breakdown[GLOBAL_ACC_W][MISS] = 5934
	L2_cache_stats_breakdown[GLOBAL_ACC_W][RESERVATION_FAIL] = 7
	L2_cache_stats_breakdown[INST_ACC_R][HIT] = 61
	L2_cache_stats_breakdown[INST_ACC_R][HIT_RESERVED] = 9
	L2_cache_stats_breakdown[INST_ACC_R][MISS] = 5
	L2_cache_stats_breakdown[INST_ACC_R][RESERVATION_FAIL] = 316
L2_cache_data_port_util = 0.301
L2_cache_fill_port_util = 0.020

icnt_total_pkts_mem_to_simt=3501892
icnt_total_pkts_simt_to_mem=1449896
LD_mem_lat_dist  0 0 0 0 0 0 0 0 0 0 0 0 0 0 0 0 0 0 0 0 0 0 0 0 0 0 0
ST_mem_lat_dist  0 0 0 0 0 0 0 0 0 0 0 0 0 0 0 0 0 0 0 0 0 0 0 0 0 0 0
----------------------------Interconnect-DETAILS--------------------------------
Class 0:
Packet latency average = 8.20259
	minimum = 6
	maximum = 18
Network latency average = 8.12723
	minimum = 6
	maximum = 18
Slowest packet = 2065339
Flit latency average = 6.27685
	minimum = 6
	maximum = 14
Slowest flit = 4948762
Fragmentation average = 0
	minimum = 0
	maximum = 0
Injected packet rate average = 0.0143587
	minimum = 0.0106817 (at node 1)
	maximum = 0.0191643 (at node 10)
Accepted packet rate average = 0.0143587
	minimum = 0.0106817 (at node 1)
	maximum = 0.0191643 (at node 10)
Injected flit rate average = 0.0420288
	minimum = 0.0106817 (at node 1)
	maximum = 0.0860823 (at node 23)
Accepted flit rate average= 0.0420288
	minimum = 0.0138234 (at node 26)
	maximum = 0.0882815 (at node 10)
Injected packet length average = 2.92707
Accepted packet length average = 2.92707
Total in-flight flits = 0 (0 measured)
====== Overall Traffic Statistics ======
====== Traffic class 0 ======
Packet latency average = 33.5625 (8 samples)
	minimum = 6 (8 samples)
	maximum = 312.125 (8 samples)
Network latency average = 21.7973 (8 samples)
	minimum = 6 (8 samples)
	maximum = 261 (8 samples)
Flit latency average = 16.347 (8 samples)
	minimum = 6 (8 samples)
	maximum = 259.25 (8 samples)
Fragmentation average = 0.0343161 (8 samples)
	minimum = 0 (8 samples)
	maximum = 156 (8 samples)
Injected packet rate average = 0.0521074 (8 samples)
	minimum = 0.0404454 (8 samples)
	maximum = 0.0955262 (8 samples)
Accepted packet rate average = 0.0521074 (8 samples)
	minimum = 0.0404454 (8 samples)
	maximum = 0.0955262 (8 samples)
Injected flit rate average = 0.128229 (8 samples)
	minimum = 0.0538283 (8 samples)
	maximum = 0.251867 (8 samples)
Accepted flit rate average = 0.128229 (8 samples)
	minimum = 0.0702949 (8 samples)
	maximum = 0.217746 (8 samples)
Injected packet size average = 2.46085 (8 samples)
Accepted packet size average = 2.46085 (8 samples)
Hops average = 1 (8 samples)
----------------------------END-of-Interconnect-DETAILS-------------------------


gpgpu_simulation_time = 0 days, 0 hrs, 4 min, 31 sec (271 sec)
gpgpu_simulation_rate = 83684 (inst/sec)
gpgpu_simulation_rate = 2798 (cycle/sec)
GPGPU-Sim: synchronize waiting for inactive GPU simulation
GPGPU-Sim API: Stream Manager State
GPGPU-Sim: detected inactive GPU simulation thread
Kernel Executed 8 times
Processing time: 270241.218750 (ms)
Result stored in result.txt
