

        *** GPGPU-Sim Simulator Version 3.2.2  [build 0] ***


GPGPU-Sim PTX: simulation mode 0 (can change with PTX_SIM_MODE_FUNC environment variable:
               1=functional simulation only, 0=detailed performance simulator)
GPGPU-Sim: Configuration options:

-network_mode                           1 # Interconnection network mode
-inter_config_file   config_fermi_islip.icnt # Interconnection network config file
-gpgpu_ptx_use_cuobjdump                    1 # Use cuobjdump to extract ptx and sass from binaries
-gpgpu_experimental_lib_support                    0 # Try to extract code from cuda libraries [Broken because of unknown cudaGetExportTable]
-gpgpu_ptx_convert_to_ptxplus                    0 # Convert SASS (native ISA) to ptxplus and run ptxplus
-gpgpu_ptx_force_max_capability                   20 # Force maximum compute capability
-gpgpu_ptx_inst_debug_to_file                    0 # Dump executed instructions' debug information to file
-gpgpu_ptx_inst_debug_file       inst_debug.txt # Executed instructions' debug output file
-gpgpu_ptx_inst_debug_thread_uid                    1 # Thread UID for executed instructions' debug output
-gpgpu_simd_model                       1 # 1 = post-dominator
-gpgpu_shader_core_pipeline              1536:32 # shader core pipeline config, i.e., {<nthread>:<warpsize>}
-gpgpu_tex_cache:l1  4:128:24,L:R:m:N:L,F:128:4,128:2 # per-shader L1 texture cache  (READ-ONLY) config  {<nsets>:<bsize>:<assoc>,<rep>:<wr>:<alloc>:<wr_alloc>,<mshr>:<N>:<merge>,<mq>:<rf>}
-gpgpu_const_cache:l1 64:64:2,L:R:f:N:L,A:2:32,4 # per-shader L1 constant memory cache  (READ-ONLY) config  {<nsets>:<bsize>:<assoc>,<rep>:<wr>:<alloc>:<wr_alloc>,<mshr>:<N>:<merge>,<mq>} 
-gpgpu_cache:il1     4:128:4,L:R:f:N:L,A:2:32,4 # shader L1 instruction cache config  {<nsets>:<bsize>:<assoc>,<rep>:<wr>:<alloc>:<wr_alloc>,<mshr>:<N>:<merge>,<mq>} 
-gpgpu_cache:dl1     32:128:4,L:L:m:N:H,A:32:8,8 # per-shader L1 data cache config  {<nsets>:<bsize>:<assoc>,<rep>:<wr>:<alloc>:<wr_alloc>,<mshr>:<N>:<merge>,<mq> | none}
-gpgpu_cache:dl1PrefL1                 none # per-shader L1 data cache config  {<nsets>:<bsize>:<assoc>,<rep>:<wr>:<alloc>:<wr_alloc>,<mshr>:<N>:<merge>,<mq> | none}
-gpgpu_cache:dl1PreShared                 none # per-shader L1 data cache config  {<nsets>:<bsize>:<assoc>,<rep>:<wr>:<alloc>:<wr_alloc>,<mshr>:<N>:<merge>,<mq> | none}
-gmem_skip_L1D                          0 # global memory access skip L1D cache (implements -Xptxas -dlcm=cg, default=no skip)
-gpgpu_perfect_mem                      0 # enable perfect memory mode (no cache miss)
-n_regfile_gating_group                    4 # group of lanes that should be read/written together)
-gpgpu_clock_gated_reg_file                    0 # enable clock gated reg file for power calculations
-gpgpu_clock_gated_lanes                    0 # enable clock gated lanes for power calculations
-gpgpu_shader_registers                32768 # Number of registers per shader core. Limits number of concurrent CTAs. (default 8192)
-gpgpu_shader_cta                       8 # Maximum number of concurrent CTAs in shader (default 8)
-gpgpu_num_cta_barriers                   16 # Maximum number of named barriers per CTA (default 16)
-gpgpu_n_clusters                      15 # number of processing clusters
-gpgpu_n_cores_per_cluster                    1 # number of simd cores per cluster
-gpgpu_n_cluster_ejection_buffer_size                    8 # number of packets in ejection buffer
-gpgpu_n_ldst_response_buffer_size                    2 # number of response packets in ld/st unit ejection buffer
-gpgpu_shmem_size                   16384 # Size of shared memory per shader core (default 16kB)
-gpgpu_shmem_size                   49152 # Size of shared memory per shader core (default 16kB)
-gpgpu_shmem_size_PrefL1                16384 # Size of shared memory per shader core (default 16kB)
-gpgpu_shmem_size_PrefShared                16384 # Size of shared memory per shader core (default 16kB)
-gpgpu_shmem_num_banks                   32 # Number of banks in the shared memory in each shader core (default 16)
-gpgpu_shmem_limited_broadcast                    0 # Limit shared memory to do one broadcast per cycle (default on)
-gpgpu_shmem_warp_parts                    1 # Number of portions a warp is divided into for shared memory bank conflict check 
-gpgpu_warpdistro_shader                   -1 # Specify which shader core to collect the warp size distribution from
-gpgpu_warp_issue_shader                    0 # Specify which shader core to collect the warp issue distribution from
-gpgpu_local_mem_map                    1 # Mapping from local memory space address to simulated GPU physical address space (default = enabled)
-gpgpu_num_reg_banks                   16 # Number of register banks (default = 8)
-gpgpu_reg_bank_use_warp_id                    0 # Use warp ID in mapping registers to banks (default = off)
-gpgpu_operand_collector_num_units_sp                    6 # number of collector units (default = 4)
-gpgpu_operand_collector_num_units_sfu                    8 # number of collector units (default = 4)
-gpgpu_operand_collector_num_units_mem                    2 # number of collector units (default = 2)
-gpgpu_operand_collector_num_units_gen                    0 # number of collector units (default = 0)
-gpgpu_operand_collector_num_in_ports_sp                    2 # number of collector unit in ports (default = 1)
-gpgpu_operand_collector_num_in_ports_sfu                    1 # number of collector unit in ports (default = 1)
-gpgpu_operand_collector_num_in_ports_mem                    1 # number of collector unit in ports (default = 1)
-gpgpu_operand_collector_num_in_ports_gen                    0 # number of collector unit in ports (default = 0)
-gpgpu_operand_collector_num_out_ports_sp                    2 # number of collector unit in ports (default = 1)
-gpgpu_operand_collector_num_out_ports_sfu                    1 # number of collector unit in ports (default = 1)
-gpgpu_operand_collector_num_out_ports_mem                    1 # number of collector unit in ports (default = 1)
-gpgpu_operand_collector_num_out_ports_gen                    0 # number of collector unit in ports (default = 0)
-gpgpu_coalesce_arch                   13 # Coalescing arch (default = 13, anything else is off for now)
-gpgpu_num_sched_per_core                    2 # Number of warp schedulers per core
-gpgpu_max_insn_issue_per_warp                    1 # Max number of instructions that can be issued per warp in one cycle by scheduler
-gpgpu_simt_core_sim_order                    1 # Select the simulation order of cores in a cluster (0=Fix, 1=Round-Robin)
-gpgpu_pipeline_widths        2,1,1,2,1,1,2 # Pipeline widths ID_OC_SP,ID_OC_SFU,ID_OC_MEM,OC_EX_SP,OC_EX_SFU,OC_EX_MEM,EX_WB
-gpgpu_num_sp_units                     2 # Number of SP units (default=1)
-gpgpu_num_sfu_units                    1 # Number of SF units (default=1)
-gpgpu_num_mem_units                    1 # Number if ldst units (default=1) WARNING: not hooked up to anything
-gpgpu_scheduler                      gto # Scheduler configuration: < lrr | gto | two_level_active > If two_level_active:<num_active_warps>:<inner_prioritization>:<outer_prioritization>For complete list of prioritization values see shader.h enum scheduler_prioritization_typeDefault: gto
-gpgpu_dram_scheduler                    1 # 0 = fifo, 1 = FR-FCFS (defaul)
-gpgpu_dram_partition_queues              8:8:8:8 # i2$:$2d:d2$:$2i
-l2_ideal                               0 # Use a ideal L2 cache that always hit
-gpgpu_cache:dl2     64:128:8,L:B:m:W:L,A:32:4,4:0,32 # unified banked L2 data cache config  {<nsets>:<bsize>:<assoc>,<rep>:<wr>:<alloc>:<wr_alloc>,<mshr>:<N>:<merge>,<mq>}
-gpgpu_cache:dl2_texture_only                    0 # L2 cache used for texture only
-gpgpu_n_mem                            6 # number of memory modules (e.g. memory controllers) in gpu
-gpgpu_n_sub_partition_per_mchannel                    2 # number of memory subpartition in each memory module
-gpgpu_n_mem_per_ctrlr                    2 # number of memory chips per memory controller
-gpgpu_memlatency_stat                   14 # track and display latency statistics 0x2 enables MC, 0x4 enables queue logs
-gpgpu_frfcfs_dram_sched_queue_size                   16 # 0 = unlimited (default); # entries per chip
-gpgpu_dram_return_queue_size                  116 # 0 = unlimited (default); # entries per chip
-gpgpu_dram_buswidth                    4 # default = 4 bytes (8 bytes per cycle at DDR)
-gpgpu_dram_burst_length                    8 # Burst length of each DRAM request (default = 4 data bus cycle)
-dram_data_command_freq_ratio                    4 # Frequency ratio between DRAM data bus and command bus (default = 2 times, i.e. DDR)
-gpgpu_dram_timing_opt nbk=16:CCD=2:RRD=6:RCD=12:RAS=28:RP=12:RC=40: CL=12:WL=4:CDLR=5:WR=12:nbkgrp=4:CCDL=3:RTPL=2 # DRAM timing parameters = {nbk:tCCD:tRRD:tRCD:tRAS:tRP:tRC:CL:WL:tCDLR:tWR:nbkgrp:tCCDL:tRTPL}
-rop_latency                          120 # ROP queue latency (default 85)
-dram_latency                         100 # DRAM latency (default 30)
-gpgpu_mem_addr_mapping dramid@8;00000000.00000000.00000000.00000000.0000RRRR.RRRRRRRR.BBBCCCCB.CCSSSSSS # mapping memory address to dram model {dramid@<start bit>;<memory address map>}
-gpgpu_mem_addr_test                    0 # run sweep test to check address mapping for aliased address
-gpgpu_mem_address_mask                    1 # 0 = old addressing mask, 1 = new addressing mask, 2 = new add. mask + flipped bank sel and chip sel bits
-gpuwattch_xml_file  gpuwattch_gtx480.xml # GPUWattch XML file
-power_simulation_enabled                    1 # Turn on power simulator (1=On, 0=Off)
-power_per_cycle_dump                    0 # Dump detailed power output each cycle
-power_trace_enabled                    0 # produce a file for the power trace (1=On, 0=Off)
-power_trace_zlevel                     6 # Compression level of the power trace output log (0=no comp, 9=highest)
-steady_power_levels_enabled                    0 # produce a file for the steady power levels (1=On, 0=Off)
-steady_state_definition                  8:4 # allowed deviation:number of samples
-gpgpu_max_cycle                        0 # terminates gpu simulation early (0 = no limit)
-gpgpu_max_insn                         0 # terminates gpu simulation early (0 = no limit)
-gpgpu_max_cta                          0 # terminates gpu simulation early (0 = no limit)
-gpgpu_runtime_stat                   500 # display runtime statistics such as dram utilization {<freq>:<flag>}
-liveness_message_freq                    1 # Minimum number of seconds between simulation liveness messages (0 = always print)
-gpgpu_flush_l1_cache                    0 # Flush L1 cache at the end of each kernel call
-gpgpu_flush_l2_cache                    0 # Flush L2 cache at the end of each kernel call
-gpgpu_deadlock_detect                    1 # Stop the simulation at deadlock (1=on (default), 0=off)
-gpgpu_ptx_instruction_classification                    0 # if enabled will classify ptx instruction types per kernel (Max 255 kernels now)
-gpgpu_ptx_sim_mode                     0 # Select between Performance (default) or Functional simulation (1)
-gpgpu_clock_domains 700.0:700.0:700.0:924.0 # Clock Domain Frequencies in MhZ {<Core Clock>:<ICNT Clock>:<L2 Clock>:<DRAM Clock>}
-gpgpu_max_concurrent_kernel                    8 # maximum kernels that can run concurrently on GPU
-gpgpu_cflog_interval                    0 # Interval between each snapshot in control flow logger
-visualizer_enabled                     0 # Turn on visualizer output (1=On, 0=Off)
-visualizer_outputfile                 NULL # Specifies the output log file for visualizer
-visualizer_zlevel                      6 # Compression level of the visualizer output log (0=no comp, 9=highest)
-trace_enabled                          0 # Turn on traces
-trace_components                    none # comma seperated list of traces to enable. Complete list found in trace_streams.tup. Default none
-trace_sampling_core                    0 # The core which is printed using CORE_DPRINTF. Default 0
-trace_sampling_memory_partition                   -1 # The memory partition which is printed using MEMPART_DPRINTF. Default -1 (i.e. all)
-enable_ptx_file_line_stats                    1 # Turn on PTX source line statistic profiling. (1 = On)
-ptx_line_stats_filename gpgpu_inst_stats.txt # Output file for PTX source line statistics.
-save_embedded_ptx                      0 # saves ptx files embedded in binary as <n>.ptx
-keep                                   0 # keep intermediate files created by GPGPU-Sim when interfacing with external programs
-gpgpu_ptx_save_converted_ptxplus                    0 # Saved converted ptxplus to a file
-ptx_opcode_latency_int         4,13,4,5,145 # Opcode latencies for integers <ADD,MAX,MUL,MAD,DIV>Default 1,1,19,25,145
-ptx_opcode_latency_fp          4,13,4,5,39 # Opcode latencies for single precision floating points <ADD,MAX,MUL,MAD,DIV>Default 1,1,1,1,30
-ptx_opcode_latency_dp         8,19,8,8,330 # Opcode latencies for double precision floating points <ADD,MAX,MUL,MAD,DIV>Default 8,8,8,8,335
-ptx_opcode_initiation_int            1,2,2,1,8 # Opcode initiation intervals for integers <ADD,MAX,MUL,MAD,DIV>Default 1,1,4,4,32
-ptx_opcode_initiation_fp            1,2,1,1,4 # Opcode initiation intervals for single precision floating points <ADD,MAX,MUL,MAD,DIV>Default 1,1,1,1,5
-ptx_opcode_initiation_dp         8,16,8,8,130 # Opcode initiation intervals for double precision floating points <ADD,MAX,MUL,MAD,DIV>Default 8,8,8,8,130
DRAM Timing Options:
nbk                                    16 # number of banks
CCD                                     2 # column to column delay
RRD                                     6 # minimal delay between activation of rows in different banks
RCD                                    12 # row to column delay
RAS                                    28 # time needed to activate row
RP                                     12 # time needed to precharge (deactivate) row
RC                                     40 # row cycle time
CDLR                                    5 # switching from write to read (changes tWTR)
WR                                     12 # last data-in to row precharge
CL                                     12 # CAS latency
WL                                      4 # Write latency
nbkgrp                                  4 # number of bank groups
CCDL                                    3 # column to column delay between accesses to different bank groups
RTPL                                    2 # read to precharge delay between accesses to different bank groups
Total number of memory sub partition = 12
addr_dec_mask[CHIP]  = 0000000000000000 	high:64 low:0
addr_dec_mask[BK]    = 000000000000e100 	high:16 low:8
addr_dec_mask[ROW]   = 000000000fff0000 	high:28 low:16
addr_dec_mask[COL]   = 0000000000001eff 	high:13 low:0
addr_dec_mask[BURST] = 000000000000003f 	high:6 low:0
sub_partition_id_mask = 0000000000000100
GPGPU-Sim uArch: clock freqs: 700000000.000000:700000000.000000:700000000.000000:924000000.000000
GPGPU-Sim uArch: clock periods: 0.00000000142857142857:0.00000000142857142857:0.00000000142857142857:0.00000000108225108225
*** Initializing Memory Statistics ***
GPGPU-Sim uArch: interconnect node map (shaderID+MemID to icntID)
GPGPU-Sim uArch: Memory nodes ID start from index: 15
GPGPU-Sim uArch:    0   1   2   3   4
GPGPU-Sim uArch:    5   6   7   8   9
GPGPU-Sim uArch:   10  11  12  13  14
GPGPU-Sim uArch:   15  16  17  18  19
GPGPU-Sim uArch:   20  21  22  23  24
GPGPU-Sim uArch:   25  26
GPGPU-Sim uArch: interconnect node reverse map (icntID to shaderID+MemID)
GPGPU-Sim uArch: Memory nodes start from ID: 15
GPGPU-Sim uArch:    0   1   2   3   4
GPGPU-Sim uArch:    5   6   7   8   9
GPGPU-Sim uArch:   10  11  12  13  14
GPGPU-Sim uArch:   15  16  17  18  19
GPGPU-Sim uArch:   20  21  22  23  24
GPGPU-Sim uArch:   25  26
f549123fe2c2f89e5d98aeb10ece1294  /root/ispass2009-benchmarks/bin/release/STO
GPGPU-Sim uArch: performance model initialization complete.
GPGPU-Sim PTX: __cudaRegisterFatBinary, fat_cubin_handle = 1, filename=main.cu
self exe links to: /root/ispass2009-benchmarks/bin/release/STO
Running md5sum using "md5sum /root/ispass2009-benchmarks/bin/release/STO "
Running cuobjdump using "$CUDA_INSTALL_PATH/bin/cuobjdump -ptx -elf -sass /root/ispass2009-benchmarks/bin/release/STO > _cuobjdump_complete_output_Pk9RqL"
Parsing file _cuobjdump_complete_output_Pk9RqL
######### cuobjdump parser ########
## Adding new section PTX
Adding ptx filename: _cuobjdump_1.ptx
Adding arch: sm_30
Adding identifier: main.cu
## Adding new section ELF
Adding arch: sm_30
Adding identifier: main.cu
## Adding new section ELF
Adding arch: sm_20
Adding identifier: main.cu
## Adding new section PTX
Adding ptx filename: _cuobjdump_2.ptx
Adding arch: sm_20
Adding identifier: main.cu
## Adding new section PTX
Adding ptx filename: _cuobjdump_3.ptx
Adding arch: sm_10
Adding identifier: main.cu
## Adding new section ELF
Adding arch: sm_10
Adding identifier: main.cu
## Adding new section PTX
Adding ptx filename: _cuobjdump_4.ptx
Adding arch: sm_30
Adding identifier: storeGPU.cu
## Adding new section ELF
Adding arch: sm_30
Adding identifier: storeGPU.cu
## Adding new section ELF
Adding arch: sm_20
Adding identifier: storeGPU.cu
## Adding new section PTX
Adding ptx filename: _cuobjdump_5.ptx
Adding arch: sm_20
Adding identifier: storeGPU.cu
## Adding new section PTX
Adding ptx filename: _cuobjdump_6.ptx
Adding arch: sm_10
Adding identifier: storeGPU.cu
## Adding new section ELF
Adding arch: sm_10
Adding identifier: storeGPU.cu
Done parsing!!!
GPGPU-Sim PTX: __cudaRegisterFatBinary, fat_cubin_handle = 2, filename=storeGPU.cu
GPGPU-Sim PTX: __cudaRegisterFunction _Z12sha1_overlapPhiiiiS_ : hostFun 0x0x407f00, fat_cubin_handle = 2
GPGPU-Sim PTX: allocating global region for "md5_padding" from 0x100 to 0x140 (global memory space)
GPGPU-Sim PTX: allocating global region for "sha1_padding" from 0x140 to 0x180 (global memory space)
GPGPU-Sim PTX: allocating stack frame region for .param "func_retval0" from 0x0 to 0x8
GPGPU-Sim PTX: allocating stack frame region for .param "_Z14macroRFunctioniPj_param_0" from 0x8 to 0xc
GPGPU-Sim PTX: allocating stack frame region for .param "_Z14macroRFunctioniPj_param_1" from 0xc to 0x14
GPGPU-Sim PTX: instruction assembly for function '_Z14macroRFunctioniPj'...   done.
GPGPU-Sim PTX: finding reconvergence points for '_Z14macroRFunctioniPj'...
GPGPU-Sim PTX: Finding dominators for '_Z14macroRFunctioniPj'...
GPGPU-Sim PTX: Finding immediate dominators for '_Z14macroRFunctioniPj'...
GPGPU-Sim PTX: Finding postdominators for '_Z14macroRFunctioniPj'...
GPGPU-Sim PTX: Finding immediate postdominators for '_Z14macroRFunctioniPj'...
GPGPU-Sim PTX: pre-decoding instructions for '_Z14macroRFunctioniPj'...
GPGPU-Sim PTX: reconvergence points for _Z14macroRFunctioniPj...
GPGPU-Sim PTX: ... end of reconvergence points for _Z14macroRFunctioniPj
GPGPU-Sim PTX: ... done pre-decoding instructions for '_Z14macroRFunctioniPj'.
GPGPU-Sim PTX: allocating shared region for "__cuda_local_var_17869_40_non_const_sharedMemory" from 0x0 to 0x3f80 (shared memory space)
GPGPU-Sim PTX: instruction assembly for function '_Z3md5PhiiiS_'...   done.
GPGPU-Sim PTX: finding reconvergence points for '_Z3md5PhiiiS_'...
GPGPU-Sim PTX: Finding dominators for '_Z3md5PhiiiS_'...
GPGPU-Sim PTX: Finding immediate dominators for '_Z3md5PhiiiS_'...
GPGPU-Sim PTX: Finding postdominators for '_Z3md5PhiiiS_'...
GPGPU-Sim PTX: Finding immediate postdominators for '_Z3md5PhiiiS_'...
GPGPU-Sim PTX: pre-decoding instructions for '_Z3md5PhiiiS_'...
GPGPU-Sim PTX: reconvergence points for _Z3md5PhiiiS_...
GPGPU-Sim PTX:  1 (potential) branch divergence @  PC=0x150 (_2.ptx:96) @%p1 bra BB1_2;
GPGPU-Sim PTX:    immediate post dominator      @ 
GPGPU-Sim PTX:  2 (potential) branch divergence @  PC=0x198 (_2.ptx:112) @!%p5 bra BB1_5;
GPGPU-Sim PTX:    immediate post dominator      @  PC=0x218 (_2.ptx:137) mov.u32 %r402, %tid.x;
GPGPU-Sim PTX:  3 (potential) branch divergence @  PC=0x210 (_2.ptx:133) @%p6 bra BB1_4;
GPGPU-Sim PTX:    immediate post dominator      @  PC=0x218 (_2.ptx:137) mov.u32 %r402, %tid.x;
GPGPU-Sim PTX:  4 (potential) branch divergence @  PC=0x288 (_2.ptx:156) @%p7 bra BB1_7;
GPGPU-Sim PTX:    immediate post dominator      @  PC=0x2158 (_2.ptx:1339) ld.param.u64 %rl749, [_Z3md5PhiiiS__param_4];
GPGPU-Sim PTX:  5 (potential) branch divergence @  PC=0x2b0 (_2.ptx:162) bra.uni BB1_13;
GPGPU-Sim PTX:    immediate post dominator      @  PC=0x2158 (_2.ptx:1339) ld.param.u64 %rl749, [_Z3md5PhiiiS__param_4];
GPGPU-Sim PTX:  6 (potential) branch divergence @  PC=0x458 (_2.ptx:237) @%p8 bra BB1_10;
GPGPU-Sim PTX:    immediate post dominator      @  PC=0x4c0 (_2.ptx:261) st.shared.u32 [%rl10+1920], %r410;
GPGPU-Sim PTX:  7 (potential) branch divergence @  PC=0x488 (_2.ptx:247) bra.uni BB1_11;
GPGPU-Sim PTX:    immediate post dominator      @  PC=0x4c0 (_2.ptx:261) st.shared.u32 [%rl10+1920], %r410;
GPGPU-Sim PTX:  8 (potential) branch divergence @  PC=0x2118 (_2.ptx:1328) @%p9 bra BB1_8;
GPGPU-Sim PTX:    immediate post dominator      @  PC=0x2120 (_2.ptx:1330) cvt.u8.u64 %rc14, %rl12;
GPGPU-Sim PTX: ... end of reconvergence points for _Z3md5PhiiiS_
GPGPU-Sim PTX: ... done pre-decoding instructions for '_Z3md5PhiiiS_'.
GPGPU-Sim PTX: allocating shared region for "__cuda_local_var_17904_40_non_const_sharedMemory" from 0x0 to 0x3f80 (shared memory space)
GPGPU-Sim PTX: instruction assembly for function '_Z11md5_overlapPhiiiiS_'...   done.
GPGPU-Sim PTX: finding reconvergence points for '_Z11md5_overlapPhiiiiS_'...
GPGPU-Sim PTX: Finding dominators for '_Z11md5_overlapPhiiiiS_'...
GPGPU-Sim PTX: Finding immediate dominators for '_Z11md5_overlapPhiiiiS_'...
GPGPU-Sim PTX: Finding postdominators for '_Z11md5_overlapPhiiiiS_'...
GPGPU-Sim PTX: Finding immediate postdominators for '_Z11md5_overlapPhiiiiS_'...
GPGPU-Sim PTX: pre-decoding instructions for '_Z11md5_overlapPhiiiiS_'...
GPGPU-Sim PTX: reconvergence points for _Z11md5_overlapPhiiiiS_...
GPGPU-Sim PTX:  1 (potential) branch divergence @  PC=0x21d8 (_2.ptx:1378) @%p1 bra BB2_2;
GPGPU-Sim PTX:    immediate post dominator      @ 
GPGPU-Sim PTX:  2 (potential) branch divergence @  PC=0x2270 (_2.ptx:1405) @%p3 bra BB2_4;
GPGPU-Sim PTX:    immediate post dominator      @  PC=0x44c0 (_2.ptx:2752) ld.param.u64 %rl774, [_Z11md5_overlapPhiiiiS__param_5];
GPGPU-Sim PTX:  3 (potential) branch divergence @  PC=0x2298 (_2.ptx:1411) bra.uni BB2_18;
GPGPU-Sim PTX:    immediate post dominator      @  PC=0x44c0 (_2.ptx:2752) ld.param.u64 %rl774, [_Z11md5_overlapPhiiiiS__param_5];
GPGPU-Sim PTX:  4 (potential) branch divergence @  PC=0x2330 (_2.ptx:1438) @%p4 bra BB2_7;
GPGPU-Sim PTX:    immediate post dominator      @  PC=0x27e8 (_2.ptx:1663) and.b32 %r188, %r5, 31;
GPGPU-Sim PTX:  5 (potential) branch divergence @  PC=0x24b8 (_2.ptx:1510) bra.uni BB2_16;
GPGPU-Sim PTX:    immediate post dominator      @  PC=0x27e8 (_2.ptx:1663) and.b32 %r188, %r5, 31;
GPGPU-Sim PTX:  6 (potential) branch divergence @  PC=0x2528 (_2.ptx:1530) @%p6 bra BB2_9;
GPGPU-Sim PTX:    immediate post dominator      @  PC=0x25d0 (_2.ptx:1565) ld.param.u32 %r476, [_Z11md5_overlapPhiiiiS__param_3];
GPGPU-Sim PTX:  7 (potential) branch divergence @  PC=0x2538 (_2.ptx:1533) bra.uni BB2_12;
GPGPU-Sim PTX:    immediate post dominator      @  PC=0x25d0 (_2.ptx:1565) ld.param.u32 %r476, [_Z11md5_overlapPhiiiiS__param_3];
GPGPU-Sim PTX:  8 (potential) branch divergence @  PC=0x25c0 (_2.ptx:1560) @%p7 bra BB2_10;
GPGPU-Sim PTX:    immediate post dominator      @  PC=0x25c8 (_2.ptx:1562) mov.u32 %r492, %r25;
GPGPU-Sim PTX:  9 (potential) branch divergence @  PC=0x2640 (_2.ptx:1583) @%p9 bra BB2_15;
GPGPU-Sim PTX:    immediate post dominator      @  PC=0x2718 (_2.ptx:1625) sub.s32 %r168, %r62, %r492;
GPGPU-Sim PTX: 10 (potential) branch divergence @  PC=0x2710 (_2.ptx:1621) @%p10 bra BB2_14;
GPGPU-Sim PTX:    immediate post dominator      @  PC=0x2718 (_2.ptx:1625) sub.s32 %r168, %r62, %r492;
GPGPU-Sim PTX: 11 (potential) branch divergence @  PC=0x4480 (_2.ptx:2741) @%p12 bra BB2_5;
GPGPU-Sim PTX:    immediate post dominator      @  PC=0x4488 (_2.ptx:2743) cvt.u8.u64 %rc13, %rl6;
GPGPU-Sim PTX: ... end of reconvergence points for _Z11md5_overlapPhiiiiS_
GPGPU-Sim PTX: ... done pre-decoding instructions for '_Z11md5_overlapPhiiiiS_'.
GPGPU-Sim PTX: allocating shared region for "__cuda_local_var_18435_40_non_const_sharedMemory" from 0x0 to 0x3f80 (shared memory space)
GPGPU-Sim PTX: Warning %lhs was declared previous at _2.ptx:3495 skipping new declaration
GPGPU-Sim PTX: Warning %rhs was declared previous at _2.ptx:3496 skipping new declaration
GPGPU-Sim PTX: Warning %lhs was declared previous at _2.ptx:3495 skipping new declaration
GPGPU-Sim PTX: Warning %rhs was declared previous at _2.ptx:3496 skipping new declaration
GPGPU-Sim PTX: Warning %lhs was declared previous at _2.ptx:3495 skipping new declaration
GPGPU-Sim PTX: Warning %rhs was declared previous at _2.ptx:3496 skipping new declaration
GPGPU-Sim PTX: Warning %lhs was declared previous at _2.ptx:3495 skipping new declaration
GPGPU-Sim PTX: Warning %rhs was declared previous at _2.ptx:3496 skipping new declaration
GPGPU-Sim PTX: Warning %lhs was declared previous at _2.ptx:3495 skipping new declaration
GPGPU-Sim PTX: Warning %rhs was declared previous at _2.ptx:3496 skipping new declaration
GPGPU-Sim PTX: Warning %lhs was declared previous at _2.ptx:3495 skipping new declaration
GPGPU-Sim PTX: Warning %rhs was declared previous at _2.ptx:3496 skipping new declaration
GPGPU-Sim PTX: Warning %lhs was declared previous at _2.ptx:3495 skipping new declaration
GPGPU-Sim PTX: Warning %rhs was declared previous at _2.ptx:3496 skipping new declaration
GPGPU-Sim PTX: Warning %lhs was declared previous at _2.ptx:3495 skipping new declaration
GPGPU-Sim PTX: Warning %rhs was declared previous at _2.ptx:3496 skipping new declaration
GPGPU-Sim PTX: Warning %lhs was declared previous at _2.ptx:3495 skipping new declaration
GPGPU-Sim PTX: Warning %rhs was declared previous at _2.ptx:3496 skipping new declaration
GPGPU-Sim PTX: Warning %lhs was declared previous at _2.ptx:3495 skipping new declaration
GPGPU-Sim PTX: Warning %rhs was declared previous at _2.ptx:3496 skipping new declaration
GPGPU-Sim PTX: Warning %lhs was declared previous at _2.ptx:3495 skipping new declaration
GPGPU-Sim PTX: Warning %rhs was declared previous at _2.ptx:3496 skipping new declaration
GPGPU-Sim PTX: Warning %lhs was declared previous at _2.ptx:3495 skipping new declaration
GPGPU-Sim PTX: Warning %rhs was declared previous at _2.ptx:3496 skipping new declaration
GPGPU-Sim PTX: Warning %lhs was declared previous at _2.ptx:3495 skipping new declaration
GPGPU-Sim PTX: Warning %rhs was declared previous at _2.ptx:3496 skipping new declaration
GPGPU-Sim PTX: Warning %lhs was declared previous at _2.ptx:3495 skipping new declaration
GPGPU-Sim PTX: Warning %rhs was declared previous at _2.ptx:3496 skipping new declaration
GPGPU-Sim PTX: Warning %lhs was declared previous at _2.ptx:3495 skipping new declaration
GPGPU-Sim PTX: Warning %rhs was declared previous at _2.ptx:3496 skipping new declaration
GPGPU-Sim PTX: Warning %lhs was declared previous at _2.ptx:3495 skipping new declaration
GPGPU-Sim PTX: Warning %rhs was declared previous at _2.ptx:3496 skipping new declaration
GPGPU-Sim PTX: Warning %lhs was declared previous at _2.ptx:3495 skipping new declaration
GPGPU-Sim PTX: Warning %rhs was declared previous at _2.ptx:3496 skipping new declaration
GPGPU-Sim PTX: Warning %lhs was declared previous at _2.ptx:3495 skipping new declaration
GPGPU-Sim PTX: Warning %rhs was declared previous at _2.ptx:3496 skipping new declaration
GPGPU-Sim PTX: Warning %lhs was declared previous at _2.ptx:3495 skipping new declaration
GPGPU-Sim PTX: Warning %rhs was declared previous at _2.ptx:3496 skipping new declaration
GPGPU-Sim PTX: Warning %lhs was declared previous at _2.ptx:3495 skipping new declaration
GPGPU-Sim PTX: Warning %rhs was declared previous at _2.ptx:3496 skipping new declaration
GPGPU-Sim PTX: Warning %lhs was declared previous at _2.ptx:3495 skipping new declaration
GPGPU-Sim PTX: Warning %rhs was declared previous at _2.ptx:3496 skipping new declaration
GPGPU-Sim PTX: Warning %lhs was declared previous at _2.ptx:3495 skipping new declaration
GPGPU-Sim PTX: Warning %rhs was declared previous at _2.ptx:3496 skipping new declaration
GPGPU-Sim PTX: Warning %lhs was declared previous at _2.ptx:3495 skipping new declaration
GPGPU-Sim PTX: Warning %rhs was declared previous at _2.ptx:3496 skipping new declaration
GPGPU-Sim PTX: Warning %lhs was declared previous at _2.ptx:3495 skipping new declaration
GPGPU-Sim PTX: Warning %rhs was declared previous at _2.ptx:3496 skipping new declaration
GPGPU-Sim PTX: Warning %lhs was declared previous at _2.ptx:3495 skipping new declaration
GPGPU-Sim PTX: Warning %rhs was declared previous at _2.ptx:3496 skipping new declaration
GPGPU-Sim PTX: Warning %lhs was declared previous at _2.ptx:3495 skipping new declaration
GPGPU-Sim PTX: Warning %rhs was declared previous at _2.ptx:3496 skipping new declaration
GPGPU-Sim PTX: Warning %lhs was declared previous at _2.ptx:3495 skipping new declaration
GPGPU-Sim PTX: Warning %rhs was declared previous at _2.ptx:3496 skipping new declaration
GPGPU-Sim PTX: Warning %lhs was declared previous at _2.ptx:3495 skipping new declaration
GPGPU-Sim PTX: Warning %rhs was declared previous at _2.ptx:3496 skipping new declaration
GPGPU-Sim PTX: Warning %lhs was declared previous at _2.ptx:3495 skipping new declaration
GPGPU-Sim PTX: Warning %rhs was declared previous at _2.ptx:3496 skipping new declaration
GPGPU-Sim PTX: Warning %lhs was declared previous at _2.ptx:3495 skipping new declaration
GPGPU-Sim PTX: Warning %rhs was declared previous at _2.ptx:3496 skipping new declaration
GPGPU-Sim PTX: Warning %lhs was declared previous at _2.ptx:3495 skipping new declaration
GPGPU-Sim PTX: Warning %rhs was declared previous at _2.ptx:3496 skipping new declaration
GPGPU-Sim PTX: Warning %lhs was declared previous at _2.ptx:3495 skipping new declaration
GPGPU-Sim PTX: Warning %rhs was declared previous at _2.ptx:3496 skipping new declaration
GPGPU-Sim PTX: Warning %lhs was declared previous at _2.ptx:3495 skipping new declaration
GPGPU-Sim PTX: Warning %rhs was declared previous at _2.ptx:3496 skipping new declaration
GPGPU-Sim PTX: Warning %lhs was declared previous at _2.ptx:3495 skipping new declaration
GPGPU-Sim PTX: Warning %rhs was declared previous at _2.ptx:3496 skipping new declaration
GPGPU-Sim PTX: Warning %lhs was declared previous at _2.ptx:3495 skipping new declaration
GPGPU-Sim PTX: Warning %rhs was declared previous at _2.ptx:3496 skipping new declaration
GPGPU-Sim PTX: Warning %lhs was declared previous at _2.ptx:3495 skipping new declaration
GPGPU-Sim PTX: Warning %rhs was declared previous at _2.ptx:3496 skipping new declaration
GPGPU-Sim PTX: Warning %lhs was declared previous at _2.ptx:3495 skipping new declaration
GPGPU-Sim PTX: Warning %rhs was declared previous at _2.ptx:3496 skipping new declaration
GPGPU-Sim PTX: Warning %lhs was declared previous at _2.ptx:3495 skipping new declaration
GPGPU-Sim PTX: Warning %rhs was declared previous at _2.ptx:3496 skipping new declaration
GPGPU-Sim PTX: Warning %lhs was declared previous at _2.ptx:3495 skipping new declaration
GPGPU-Sim PTX: Warning %rhs was declared previous at _2.ptx:3496 skipping new declaration
GPGPU-Sim PTX: Warning %lhs was declared previous at _2.ptx:3495 skipping new declaration
GPGPU-Sim PTX: Warning %rhs was declared previous at _2.ptx:3496 skipping new declaration
GPGPU-Sim PTX: Warning %lhs was declared previous at _2.ptx:3495 skipping new declaration
GPGPU-Sim PTX: Warning %rhs was declared previous at _2.ptx:3496 skipping new declaration
GPGPU-Sim PTX: Warning %lhs was declared previous at _2.ptx:3495 skipping new declaration
GPGPU-Sim PTX: Warning %rhs was declared previous at _2.ptx:3496 skipping new declaration
GPGPU-Sim PTX: Warning %lhs was declared previous at _2.ptx:3495 skipping new declaration
GPGPU-Sim PTX: Warning %rhs was declared previous at _2.ptx:3496 skipping new declaration
GPGPU-Sim PTX: Warning %lhs was declared previous at _2.ptx:3495 skipping new declaration
GPGPU-Sim PTX: Warning %rhs was declared previous at _2.ptx:3496 skipping new declaration
GPGPU-Sim PTX: Warning %lhs was declared previous at _2.ptx:3495 skipping new declaration
GPGPU-Sim PTX: Warning %rhs was declared previous at _2.ptx:3496 skipping new declaration
GPGPU-Sim PTX: Warning %lhs was declared previous at _2.ptx:3495 skipping new declaration
GPGPU-Sim PTX: Warning %rhs was declared previous at _2.ptx:3496 skipping new declaration
GPGPU-Sim PTX: Warning %lhs was declared previous at _2.ptx:3495 skipping new declaration
GPGPU-Sim PTX: Warning %rhs was declared previous at _2.ptx:3496 skipping new declaration
GPGPU-Sim PTX: Warning %lhs was declared previous at _2.ptx:3495 skipping new declaration
GPGPU-Sim PTX: Warning %rhs was declared previous at _2.ptx:3496 skipping new declaration
GPGPU-Sim PTX: Warning %lhs was declared previous at _2.ptx:3495 skipping new declaration
GPGPU-Sim PTX: Warning %rhs was declared previous at _2.ptx:3496 skipping new declaration
GPGPU-Sim PTX: Warning %lhs was declared previous at _2.ptx:3495 skipping new declaration
GPGPU-Sim PTX: Warning %rhs was declared previous at _2.ptx:3496 skipping new declaration
GPGPU-Sim PTX: Warning %lhs was declared previous at _2.ptx:3495 skipping new declaration
GPGPU-Sim PTX: Warning %rhs was declared previous at _2.ptx:3496 skipping new declaration
GPGPU-Sim PTX: Warning %lhs was declared previous at _2.ptx:3495 skipping new declaration
GPGPU-Sim PTX: Warning %rhs was declared previous at _2.ptx:3496 skipping new declaration
GPGPU-Sim PTX: Warning %lhs was declared previous at _2.ptx:3495 skipping new declaration
GPGPU-Sim PTX: Warning %rhs was declared previous at _2.ptx:3496 skipping new declaration
GPGPU-Sim PTX: Warning %lhs was declared previous at _2.ptx:3495 skipping new declaration
GPGPU-Sim PTX: Warning %rhs was declared previous at _2.ptx:3496 skipping new declaration
GPGPU-Sim PTX: Warning %lhs was declared previous at _2.ptx:3495 skipping new declaration
GPGPU-Sim PTX: Warning %rhs was declared previous at _2.ptx:3496 skipping new declaration
GPGPU-Sim PTX: Warning %lhs was declared previous at _2.ptx:3495 skipping new declaration
GPGPU-Sim PTX: Warning %rhs was declared previous at _2.ptx:3496 skipping new declaration
GPGPU-Sim PTX: Warning %lhs was declared previous at _2.ptx:3495 skipping new declaration
GPGPU-Sim PTX: Warning %rhs was declared previous at _2.ptx:3496 skipping new declaration
GPGPU-Sim PTX: Warning %lhs was declared previous at _2.ptx:3495 skipping new declaration
GPGPU-Sim PTX: Warning %rhs was declared previous at _2.ptx:3496 skipping new declaration
GPGPU-Sim PTX: Warning %lhs was declared previous at _2.ptx:3495 skipping new declaration
GPGPU-Sim PTX: Warning %rhs was declared previous at _2.ptx:3496 skipping new declaration
GPGPU-Sim PTX: Warning %lhs was declared previous at _2.ptx:3495 skipping new declaration
GPGPU-Sim PTX: Warning %rhs was declared previous at _2.ptx:3496 skipping new declaration
GPGPU-Sim PTX: Warning %lhs was declared previous at _2.ptx:3495 skipping new declaration
GPGPU-Sim PTX: Warning %rhs was declared previous at _2.ptx:3496 skipping new declaration
GPGPU-Sim PTX: Warning %lhs was declared previous at _2.ptx:3495 skipping new declaration
GPGPU-Sim PTX: Warning %rhs was declared previous at _2.ptx:3496 skipping new declaration
GPGPU-Sim PTX: Warning %lhs was declared previous at _2.ptx:3495 skipping new declaration
GPGPU-Sim PTX: Warning %rhs was declared previous at _2.ptx:3496 skipping new declaration
GPGPU-Sim PTX: instruction assembly for function '_Z4sha1PhiiiS_'...   done.
GPGPU-Sim PTX: finding reconvergence points for '_Z4sha1PhiiiS_'...
GPGPU-Sim PTX: Finding dominators for '_Z4sha1PhiiiS_'...
GPGPU-Sim PTX: Finding immediate dominators for '_Z4sha1PhiiiS_'...
GPGPU-Sim PTX: Finding postdominators for '_Z4sha1PhiiiS_'...
GPGPU-Sim PTX: Finding immediate postdominators for '_Z4sha1PhiiiS_'...
GPGPU-Sim PTX: pre-decoding instructions for '_Z4sha1PhiiiS_'...
GPGPU-Sim PTX: reconvergence points for _Z4sha1PhiiiS_...
GPGPU-Sim PTX:  1 (potential) branch divergence @  PC=0x4550 (_2.ptx:2792) @%p1 bra BB3_2;
GPGPU-Sim PTX:    immediate post dominator      @ 
GPGPU-Sim PTX:  2 (potential) branch divergence @  PC=0x4598 (_2.ptx:2808) @!%p5 bra BB3_5;
GPGPU-Sim PTX:    immediate post dominator      @  PC=0x4618 (_2.ptx:2833) mov.u32 %r1241, %tid.x;
GPGPU-Sim PTX:  3 (potential) branch divergence @  PC=0x4610 (_2.ptx:2829) @%p6 bra BB3_4;
GPGPU-Sim PTX:    immediate post dominator      @  PC=0x4618 (_2.ptx:2833) mov.u32 %r1241, %tid.x;
GPGPU-Sim PTX:  4 (potential) branch divergence @  PC=0x4658 (_2.ptx:2843) @%p7 bra BB3_12;
GPGPU-Sim PTX:    immediate post dominator      @  PC=0x8d10 (_2.ptx:5803) ld.param.u64 %rl1302, [_Z4sha1PhiiiS__param_4];
GPGPU-Sim PTX:  5 (potential) branch divergence @  PC=0x4808 (_2.ptx:2918) @%p8 bra BB3_9;
GPGPU-Sim PTX:    immediate post dominator      @  PC=0x4900 (_2.ptx:2964) mul.wide.u32 %rl29, %r35, 4;
GPGPU-Sim PTX:  6 (potential) branch divergence @  PC=0x4840 (_2.ptx:2929) bra.uni BB3_10;
GPGPU-Sim PTX:    immediate post dominator      @  PC=0x4900 (_2.ptx:2964) mul.wide.u32 %rl29, %r35, 4;
GPGPU-Sim PTX:  7 (potential) branch divergence @  PC=0x8ca8 (_2.ptx:5785) @%p9 bra BB3_7;
GPGPU-Sim PTX:    immediate post dominator      @  PC=0x8cb0 (_2.ptx:5787) cvt.u8.u64 %rc15, %rl12;
GPGPU-Sim PTX:  8 (potential) branch divergence @  PC=0x8ce8 (_2.ptx:5794) bra.uni BB3_13;
GPGPU-Sim PTX:    immediate post dominator      @  PC=0x8d10 (_2.ptx:5803) ld.param.u64 %rl1302, [_Z4sha1PhiiiS__param_4];
GPGPU-Sim PTX: ... end of reconvergence points for _Z4sha1PhiiiS_
GPGPU-Sim PTX: ... done pre-decoding instructions for '_Z4sha1PhiiiS_'.
GPGPU-Sim PTX: allocating shared region for "__cuda_local_var_18467_40_non_const_sharedMemory" from 0x0 to 0x3f80 (shared memory space)
GPGPU-Sim PTX: Warning %lhs was declared previous at _2.ptx:6690 skipping new declaration
GPGPU-Sim PTX: Warning %rhs was declared previous at _2.ptx:6691 skipping new declaration
GPGPU-Sim PTX: Warning %lhs was declared previous at _2.ptx:6690 skipping new declaration
GPGPU-Sim PTX: Warning %rhs was declared previous at _2.ptx:6691 skipping new declaration
GPGPU-Sim PTX: Warning %lhs was declared previous at _2.ptx:6690 skipping new declaration
GPGPU-Sim PTX: Warning %rhs was declared previous at _2.ptx:6691 skipping new declaration
GPGPU-Sim PTX: Warning %lhs was declared previous at _2.ptx:6690 skipping new declaration
GPGPU-Sim PTX: Warning %rhs was declared previous at _2.ptx:6691 skipping new declaration
GPGPU-Sim PTX: Warning %lhs was declared previous at _2.ptx:6690 skipping new declaration
GPGPU-Sim PTX: Warning %rhs was declared previous at _2.ptx:6691 skipping new declaration
GPGPU-Sim PTX: Warning %lhs was declared previous at _2.ptx:6690 skipping new declaration
GPGPU-Sim PTX: Warning %rhs was declared previous at _2.ptx:6691 skipping new declaration
GPGPU-Sim PTX: Warning %lhs was declared previous at _2.ptx:6690 skipping new declaration
GPGPU-Sim PTX: Warning %rhs was declared previous at _2.ptx:6691 skipping new declaration
GPGPU-Sim PTX: Warning %lhs was declared previous at _2.ptx:6690 skipping new declaration
GPGPU-Sim PTX: Warning %rhs was declared previous at _2.ptx:6691 skipping new declaration
GPGPU-Sim PTX: Warning %lhs was declared previous at _2.ptx:6690 skipping new declaration
GPGPU-Sim PTX: Warning %rhs was declared previous at _2.ptx:6691 skipping new declaration
GPGPU-Sim PTX: Warning %lhs was declared previous at _2.ptx:6690 skipping new declaration
GPGPU-Sim PTX: Warning %rhs was declared previous at _2.ptx:6691 skipping new declaration
GPGPU-Sim PTX: Warning %lhs was declared previous at _2.ptx:6690 skipping new declaration
GPGPU-Sim PTX: Warning %rhs was declared previous at _2.ptx:6691 skipping new declaration
GPGPU-Sim PTX: Warning %lhs was declared previous at _2.ptx:6690 skipping new declaration
GPGPU-Sim PTX: Warning %rhs was declared previous at _2.ptx:6691 skipping new declaration
GPGPU-Sim PTX: Warning %lhs was declared previous at _2.ptx:6690 skipping new declaration
GPGPU-Sim PTX: Warning %rhs was declared previous at _2.ptx:6691 skipping new declaration
GPGPU-Sim PTX: Warning %lhs was declared previous at _2.ptx:6690 skipping new declaration
GPGPU-Sim PTX: Warning %rhs was declared previous at _2.ptx:6691 skipping new declaration
GPGPU-Sim PTX: Warning %lhs was declared previous at _2.ptx:6690 skipping new declaration
GPGPU-Sim PTX: Warning %rhs was declared previous at _2.ptx:6691 skipping new declaration
GPGPU-Sim PTX: Warning %lhs was declared previous at _2.ptx:6690 skipping new declaration
GPGPU-Sim PTX: Warning %rhs was declared previous at _2.ptx:6691 skipping new declaration
GPGPU-Sim PTX: Warning %lhs was declared previous at _2.ptx:6690 skipping new declaration
GPGPU-Sim PTX: Warning %rhs was declared previous at _2.ptx:6691 skipping new declaration
GPGPU-Sim PTX: Warning %lhs was declared previous at _2.ptx:6690 skipping new declaration
GPGPU-Sim PTX: Warning %rhs was declared previous at _2.ptx:6691 skipping new declaration
GPGPU-Sim PTX: Warning %lhs was declared previous at _2.ptx:6690 skipping new declaration
GPGPU-Sim PTX: Warning %rhs was declared previous at _2.ptx:6691 skipping new declaration
GPGPU-Sim PTX: Warning %lhs was declared previous at _2.ptx:6690 skipping new declaration
GPGPU-Sim PTX: Warning %rhs was declared previous at _2.ptx:6691 skipping new declaration
GPGPU-Sim PTX: Warning %lhs was declared previous at _2.ptx:6690 skipping new declaration
GPGPU-Sim PTX: Warning %rhs was declared previous at _2.ptx:6691 skipping new declaration
GPGPU-Sim PTX: Warning %lhs was declared previous at _2.ptx:6690 skipping new declaration
GPGPU-Sim PTX: Warning %rhs was declared previous at _2.ptx:6691 skipping new declaration
GPGPU-Sim PTX: Warning %lhs was declared previous at _2.ptx:6690 skipping new declaration
GPGPU-Sim PTX: Warning %rhs was declared previous at _2.ptx:6691 skipping new declaration
GPGPU-Sim PTX: Warning %lhs was declared previous at _2.ptx:6690 skipping new declaration
GPGPU-Sim PTX: Warning %rhs was declared previous at _2.ptx:6691 skipping new declaration
GPGPU-Sim PTX: Warning %lhs was declared previous at _2.ptx:6690 skipping new declaration
GPGPU-Sim PTX: Warning %rhs was declared previous at _2.ptx:6691 skipping new declaration
GPGPU-Sim PTX: Warning %lhs was declared previous at _2.ptx:6690 skipping new declaration
GPGPU-Sim PTX: Warning %rhs was declared previous at _2.ptx:6691 skipping new declaration
GPGPU-Sim PTX: Warning %lhs was declared previous at _2.ptx:6690 skipping new declaration
GPGPU-Sim PTX: Warning %rhs was declared previous at _2.ptx:6691 skipping new declaration
GPGPU-Sim PTX: Warning %lhs was declared previous at _2.ptx:6690 skipping new declaration
GPGPU-Sim PTX: Warning %rhs was declared previous at _2.ptx:6691 skipping new declaration
GPGPU-Sim PTX: Warning %lhs was declared previous at _2.ptx:6690 skipping new declaration
GPGPU-Sim PTX: Warning %rhs was declared previous at _2.ptx:6691 skipping new declaration
GPGPU-Sim PTX: Warning %lhs was declared previous at _2.ptx:6690 skipping new declaration
GPGPU-Sim PTX: Warning %rhs was declared previous at _2.ptx:6691 skipping new declaration
GPGPU-Sim PTX: Warning %lhs was declared previous at _2.ptx:6690 skipping new declaration
GPGPU-Sim PTX: Warning %rhs was declared previous at _2.ptx:6691 skipping new declaration
GPGPU-Sim PTX: Warning %lhs was declared previous at _2.ptx:6690 skipping new declaration
GPGPU-Sim PTX: Warning %rhs was declared previous at _2.ptx:6691 skipping new declaration
GPGPU-Sim PTX: Warning %lhs was declared previous at _2.ptx:6690 skipping new declaration
GPGPU-Sim PTX: Warning %rhs was declared previous at _2.ptx:6691 skipping new declaration
GPGPU-Sim PTX: Warning %lhs was declared previous at _2.ptx:6690 skipping new declaration
GPGPU-Sim PTX: Warning %rhs was declared previous at _2.ptx:6691 skipping new declaration
GPGPU-Sim PTX: Warning %lhs was declared previous at _2.ptx:6690 skipping new declaration
GPGPU-Sim PTX: Warning %rhs was declared previous at _2.ptx:6691 skipping new declaration
GPGPU-Sim PTX: Warning %lhs was declared previous at _2.ptx:6690 skipping new declaration
GPGPU-Sim PTX: Warning %rhs was declared previous at _2.ptx:6691 skipping new declaration
GPGPU-Sim PTX: Warning %lhs was declared previous at _2.ptx:6690 skipping new declaration
GPGPU-Sim PTX: Warning %rhs was declared previous at _2.ptx:6691 skipping new declaration
GPGPU-Sim PTX: Warning %lhs was declared previous at _2.ptx:6690 skipping new declaration
GPGPU-Sim PTX: Warning %rhs was declared previous at _2.ptx:6691 skipping new declaration
GPGPU-Sim PTX: Warning %lhs was declared previous at _2.ptx:6690 skipping new declaration
GPGPU-Sim PTX: Warning %rhs was declared previous at _2.ptx:6691 skipping new declaration
GPGPU-Sim PTX: Warning %lhs was declared previous at _2.ptx:6690 skipping new declaration
GPGPU-Sim PTX: Warning %rhs was declared previous at _2.ptx:6691 skipping new declaration
GPGPU-Sim PTX: Warning %lhs was declared previous at _2.ptx:6690 skipping new declaration
GPGPU-Sim PTX: Warning %rhs was declared previous at _2.ptx:6691 skipping new declaration
GPGPU-Sim PTX: Warning %lhs was declared previous at _2.ptx:6690 skipping new declaration
GPGPU-Sim PTX: Warning %rhs was declared previous at _2.ptx:6691 skipping new declaration
GPGPU-Sim PTX: Warning %lhs was declared previous at _2.ptx:6690 skipping new declaration
GPGPU-Sim PTX: Warning %rhs was declared previous at _2.ptx:6691 skipping new declaration
GPGPU-Sim PTX: Warning %lhs was declared previous at _2.ptx:6690 skipping new declaration
GPGPU-Sim PTX: Warning %rhs was declared previous at _2.ptx:6691 skipping new declaration
GPGPU-Sim PTX: Warning %lhs was declared previous at _2.ptx:6690 skipping new declaration
GPGPU-Sim PTX: Warning %rhs was declared previous at _2.ptx:6691 skipping new declaration
GPGPU-Sim PTX: Warning %lhs was declared previous at _2.ptx:6690 skipping new declaration
GPGPU-Sim PTX: Warning %rhs was declared previous at _2.ptx:6691 skipping new declaration
GPGPU-Sim PTX: Warning %lhs was declared previous at _2.ptx:6690 skipping new declaration
GPGPU-Sim PTX: Warning %rhs was declared previous at _2.ptx:6691 skipping new declaration
GPGPU-Sim PTX: Warning %lhs was declared previous at _2.ptx:6690 skipping new declaration
GPGPU-Sim PTX: Warning %rhs was declared previous at _2.ptx:6691 skipping new declaration
GPGPU-Sim PTX: Warning %lhs was declared previous at _2.ptx:6690 skipping new declaration
GPGPU-Sim PTX: Warning %rhs was declared previous at _2.ptx:6691 skipping new declaration
GPGPU-Sim PTX: Warning %lhs was declared previous at _2.ptx:6690 skipping new declaration
GPGPU-Sim PTX: Warning %rhs was declared previous at _2.ptx:6691 skipping new declaration
GPGPU-Sim PTX: Warning %lhs was declared previous at _2.ptx:6690 skipping new declaration
GPGPU-Sim PTX: Warning %rhs was declared previous at _2.ptx:6691 skipping new declaration
GPGPU-Sim PTX: Warning %lhs was declared previous at _2.ptx:6690 skipping new declaration
GPGPU-Sim PTX: Warning %rhs was declared previous at _2.ptx:6691 skipping new declaration
GPGPU-Sim PTX: Warning %lhs was declared previous at _2.ptx:6690 skipping new declaration
GPGPU-Sim PTX: Warning %rhs was declared previous at _2.ptx:6691 skipping new declaration
GPGPU-Sim PTX: Warning %lhs was declared previous at _2.ptx:6690 skipping new declaration
GPGPU-Sim PTX: Warning %rhs was declared previous at _2.ptx:6691 skipping new declaration
GPGPU-Sim PTX: Warning %lhs was declared previous at _2.ptx:6690 skipping new declaration
GPGPU-Sim PTX: Warning %rhs was declared previous at _2.ptx:6691 skipping new declaration
GPGPU-Sim PTX: Warning %lhs was declared previous at _2.ptx:6690 skipping new declaration
GPGPU-Sim PTX: Warning %rhs was declared previous at _2.ptx:6691 skipping new declaration
GPGPU-Sim PTX: Warning %lhs was declared previous at _2.ptx:6690 skipping new declaration
GPGPU-Sim PTX: Warning %rhs was declared previous at _2.ptx:6691 skipping new declaration
GPGPU-Sim PTX: Warning %lhs was declared previous at _2.ptx:6690 skipping new declaration
GPGPU-Sim PTX: Warning %rhs was declared previous at _2.ptx:6691 skipping new declaration
GPGPU-Sim PTX: Warning %lhs was declared previous at _2.ptx:6690 skipping new declaration
GPGPU-Sim PTX: Warning %rhs was declared previous at _2.ptx:6691 skipping new declaration
GPGPU-Sim PTX: Warning %lhs was declared previous at _2.ptx:6690 skipping new declaration
GPGPU-Sim PTX: Warning %rhs was declared previous at _2.ptx:6691 skipping new declaration
GPGPU-Sim PTX: Warning %lhs was declared previous at _2.ptx:6690 skipping new declaration
GPGPU-Sim PTX: Warning %rhs was declared previous at _2.ptx:6691 skipping new declaration
GPGPU-Sim PTX: Warning %lhs was declared previous at _2.ptx:6690 skipping new declaration
GPGPU-Sim PTX: Warning %rhs was declared previous at _2.ptx:6691 skipping new declaration
GPGPU-Sim PTX: Warning %lhs was declared previous at _2.ptx:6690 skipping new declaration
GPGPU-Sim PTX: Warning %rhs was declared previous at _2.ptx:6691 skipping new declaration
GPGPU-Sim PTX: instruction assembly for function '_Z12sha1_overlapPhiiiiS_'...   done.
GPGPU-Sim PTX: finding reconvergence points for '_Z12sha1_overlapPhiiiiS_'...
GPGPU-Sim PTX: Finding dominators for '_Z12sha1_overlapPhiiiiS_'...
GPGPU-Sim PTX: Finding immediate dominators for '_Z12sha1_overlapPhiiiiS_'...
GPGPU-Sim PTX: Finding postdominators for '_Z12sha1_overlapPhiiiiS_'...
GPGPU-Sim PTX: Finding immediate postdominators for '_Z12sha1_overlapPhiiiiS_'...
GPGPU-Sim PTX: pre-decoding instructions for '_Z12sha1_overlapPhiiiiS_'...
GPGPU-Sim PTX: reconvergence points for _Z12sha1_overlapPhiiiiS_...
GPGPU-Sim PTX:  1 (potential) branch divergence @  PC=0x8d90 (_2.ptx:5842) @%p1 bra BB4_2;
GPGPU-Sim PTX:    immediate post dominator      @ 
GPGPU-Sim PTX:  2 (potential) branch divergence @  PC=0x8e08 (_2.ptx:5864) @%p3 bra BB4_17;
GPGPU-Sim PTX:    immediate post dominator      @  PC=0xd8a8 (_2.ptx:9007) ld.param.u64 %rl1332, [_Z12sha1_overlapPhiiiiS__param_5];
GPGPU-Sim PTX:  3 (potential) branch divergence @  PC=0x8ee0 (_2.ptx:5900) @%p5 bra BB4_6;
GPGPU-Sim PTX:    immediate post dominator      @  PC=0x9408 (_2.ptx:6144) and.b32 %r203, %r5, 31;
GPGPU-Sim PTX:  4 (potential) branch divergence @  PC=0x9070 (_2.ptx:5973) bra.uni BB4_15;
GPGPU-Sim PTX:    immediate post dominator      @  PC=0x9408 (_2.ptx:6144) and.b32 %r203, %r5, 31;
GPGPU-Sim PTX:  5 (potential) branch divergence @  PC=0x90e0 (_2.ptx:5994) @%p7 bra BB4_8;
GPGPU-Sim PTX:    immediate post dominator      @  PC=0x9188 (_2.ptx:6029) ld.param.u32 %r1330, [_Z12sha1_overlapPhiiiiS__param_3];
GPGPU-Sim PTX:  6 (potential) branch divergence @  PC=0x90f0 (_2.ptx:5997) bra.uni BB4_11;
GPGPU-Sim PTX:    immediate post dominator      @  PC=0x9188 (_2.ptx:6029) ld.param.u32 %r1330, [_Z12sha1_overlapPhiiiiS__param_3];
GPGPU-Sim PTX:  7 (potential) branch divergence @  PC=0x9178 (_2.ptx:6024) @%p8 bra BB4_9;
GPGPU-Sim PTX:    immediate post dominator      @  PC=0x9180 (_2.ptx:6026) mov.u32 %r1350, %r25;
GPGPU-Sim PTX:  8 (potential) branch divergence @  PC=0x91f8 (_2.ptx:6048) @%p10 bra BB4_14;
GPGPU-Sim PTX:    immediate post dominator      @  PC=0x92d0 (_2.ptx:6090) sub.s32 %r172, %r58, %r1350;
GPGPU-Sim PTX:  9 (potential) branch divergence @  PC=0x92c8 (_2.ptx:6086) @%p11 bra BB4_13;
GPGPU-Sim PTX:    immediate post dominator      @  PC=0x92d0 (_2.ptx:6090) sub.s32 %r172, %r58, %r1350;
GPGPU-Sim PTX: 10 (potential) branch divergence @  PC=0xd840 (_2.ptx:8989) @%p14 bra BB4_4;
GPGPU-Sim PTX:    immediate post dominator      @  PC=0xd848 (_2.ptx:8991) cvt.u8.u64 %rc14, %rl6;
GPGPU-Sim PTX: 11 (potential) branch divergence @  PC=0xd880 (_2.ptx:8998) bra.uni BB4_18;
GPGPU-Sim PTX:    immediate post dominator      @  PC=0xd8a8 (_2.ptx:9007) ld.param.u64 %rl1332, [_Z12sha1_overlapPhiiiiS__param_5];
GPGPU-Sim PTX: ... end of reconvergence points for _Z12sha1_overlapPhiiiiS_
GPGPU-Sim PTX: ... done pre-decoding instructions for '_Z12sha1_overlapPhiiiiS_'.
GPGPU-Sim PTX: finished parsing EMBEDDED .ptx file _2.ptx
Adding _cuobjdump_5.ptx with cubin handle 2
GPGPU-Sim PTX: extracting embedded .ptx to temporary file "_ptx_KhKq9x"
Running: cat _ptx_KhKq9x | sed 's/.version 1.5/.version 1.4/' | sed 's/, texmode_independent//' | sed 's/\(\.extern \.const\[1\] .b8 \w\+\)\[\]/\1\[1\]/' | sed 's/const\[.\]/const\[0\]/g' > _ptx2_1CB4Rk
GPGPU-Sim PTX: generating ptxinfo using "$CUDA_INSTALL_PATH/bin/ptxas --gpu-name=sm_20 -v _ptx2_1CB4Rk --output-file  /dev/null 2> _ptx_KhKq9xinfo"
GPGPU-Sim PTX: Kernel '_Z4sha1PhiiiS_' : regs=34, lmem=0, smem=16256, cmem=84
GPGPU-Sim PTX: Kernel '_Z3md5PhiiiS_' : regs=43, lmem=0, smem=16256, cmem=80
GPGPU-Sim PTX: Kernel '_Z12sha1_overlapPhiiiiS_' : regs=33, lmem=0, smem=16256, cmem=84
GPGPU-Sim PTX: Kernel '_Z11md5_overlapPhiiiiS_' : regs=43, lmem=0, smem=16256, cmem=80
GPGPU-Sim PTX: removing ptxinfo using "rm -f _ptx_KhKq9x _ptx2_1CB4Rk _ptx_KhKq9xinfo"
GPGPU-Sim PTX: loading globals with explicit initializers... 
GPGPU-Sim PTX:     initializing 'md5_padding' ...  wrote 64 bytes
GPGPU-Sim PTX:     initializing 'sha1_padding' ...  wrote 64 bytes
GPGPU-Sim PTX: finished loading globals (128 bytes total).
GPGPU-Sim PTX: loading constants with explicit initializers...  done.
GPGPU-Sim PTX: __cudaRegisterFunction _Z4sha1PhiiiS_ : hostFun 0x0x407fc0, fat_cubin_handle = 2
GPGPU-Sim PTX: __cudaRegisterFunction _Z11md5_overlapPhiiiiS_ : hostFun 0x0x4080b0, fat_cubin_handle = 2
GPGPU-Sim PTX: __cudaRegisterFunction _Z3md5PhiiiS_ : hostFun 0x0x408170, fat_cubin_handle = 2
GPGPU-Sim PTX: __cudaRegisterVar: hostVar = 0x705420; deviceAddress = md5_padding; deviceName = md5_padding
GPGPU-Sim PTX: __cudaRegisterVar: Registering const memory space of 64 bytes
GPGPU-Sim PTX registering global md5_padding hostVar to name mapping
GPGPU-Sim PTX: __cudaRegisterVar: hostVar = 0x705460; deviceAddress = sha1_padding; deviceName = sha1_padding
GPGPU-Sim PTX: __cudaRegisterVar: Registering const memory space of 64 bytes
GPGPU-Sim PTX registering global sha1_padding hostVar to name mapping
Shared Memory Enabled
Pinned Memory Enabled
Reduced Hash Size Enabled
Running SHA1 Overlap Test..
SHA1 Overlap Test


== GPU Execution Context ==
Threads       : 128
Blocks        : 384
Total Threads : 49152
Total size    : 196656
Chunk Size    : 52
Padding       : 0


GPGPU-Sim PTX: cudaLaunch for 0x0x407f00 (mode=performance simulation) on stream 0
GPGPU-Sim PTX: pushing kernel '_Z12sha1_overlapPhiiiiS_' to stream 0, gridDim= (384,1,1) blockDim = (128,1,1) 
kernel '_Z12sha1_overlapPhiiiiS_' transfer to GPU hardware scheduler
GPGPU-Sim uArch: Shader 1 bind to kernel 1 '_Z12sha1_overlapPhiiiiS_'
GPGPU-Sim uArch: CTA/core = 3, limited by: shmem
GPGPU-Sim uArch: core:  1, cta: 0 initialized @(1,0)
GPGPU-Sim uArch: Shader 2 bind to kernel 1 '_Z12sha1_overlapPhiiiiS_'
GPGPU-Sim uArch: core:  2, cta: 0 initialized @(1,0)
GPGPU-Sim uArch: Shader 3 bind to kernel 1 '_Z12sha1_overlapPhiiiiS_'
GPGPU-Sim uArch: core:  3, cta: 0 initialized @(1,0)
GPGPU-Sim uArch: Shader 4 bind to kernel 1 '_Z12sha1_overlapPhiiiiS_'
GPGPU-Sim uArch: core:  4, cta: 0 initialized @(1,0)
GPGPU-Sim uArch: Shader 5 bind to kernel 1 '_Z12sha1_overlapPhiiiiS_'
GPGPU-Sim uArch: core:  5, cta: 0 initialized @(1,0)
GPGPU-Sim uArch: Shader 6 bind to kernel 1 '_Z12sha1_overlapPhiiiiS_'
GPGPU-Sim uArch: core:  6, cta: 0 initialized @(1,0)
GPGPU-Sim uArch: Shader 7 bind to kernel 1 '_Z12sha1_overlapPhiiiiS_'
GPGPU-Sim uArch: core:  7, cta: 0 initialized @(1,0)
GPGPU-Sim uArch: Shader 8 bind to kernel 1 '_Z12sha1_overlapPhiiiiS_'
GPGPU-Sim uArch: core:  8, cta: 0 initialized @(1,0)
GPGPU-Sim uArch: Shader 9 bind to kernel 1 '_Z12sha1_overlapPhiiiiS_'
GPGPU-Sim uArch: core:  9, cta: 0 initialized @(1,0)
GPGPU-Sim uArch: Shader 10 bind to kernel 1 '_Z12sha1_overlapPhiiiiS_'
GPGPU-Sim uArch: core: 10, cta: 0 initialized @(1,0)
GPGPU-Sim uArch: Shader 11 bind to kernel 1 '_Z12sha1_overlapPhiiiiS_'
GPGPU-Sim uArch: core: 11, cta: 0 initialized @(1,0)
GPGPU-Sim uArch: Shader 12 bind to kernel 1 '_Z12sha1_overlapPhiiiiS_'
GPGPU-Sim uArch: core: 12, cta: 0 initialized @(1,0)
GPGPU-Sim uArch: Shader 13 bind to kernel 1 '_Z12sha1_overlapPhiiiiS_'
GPGPU-Sim uArch: core: 13, cta: 0 initialized @(1,0)
GPGPU-Sim uArch: Shader 14 bind to kernel 1 '_Z12sha1_overlapPhiiiiS_'
GPGPU-Sim uArch: core: 14, cta: 0 initialized @(1,0)
GPGPU-Sim uArch: Shader 0 bind to kernel 1 '_Z12sha1_overlapPhiiiiS_'
GPGPU-Sim uArch: core:  0, cta: 0 initialized @(1,0)
GPGPU-Sim uArch: core:  1, cta: 1 initialized @(2,0)
GPGPU-Sim uArch: core:  2, cta: 1 initialized @(2,0)
GPGPU-Sim uArch: core:  3, cta: 1 initialized @(2,0)
GPGPU-Sim uArch: core:  4, cta: 1 initialized @(2,0)
GPGPU-Sim uArch: core:  5, cta: 1 initialized @(2,0)
GPGPU-Sim uArch: core:  6, cta: 1 initialized @(2,0)
GPGPU-Sim uArch: core:  7, cta: 1 initialized @(2,0)
GPGPU-Sim uArch: core:  8, cta: 1 initialized @(2,0)
GPGPU-Sim uArch: core:  9, cta: 1 initialized @(2,0)
GPGPU-Sim uArch: core: 10, cta: 1 initialized @(2,0)
GPGPU-Sim uArch: core: 11, cta: 1 initialized @(2,0)
GPGPU-Sim uArch: core: 12, cta: 1 initialized @(2,0)
GPGPU-Sim uArch: core: 13, cta: 1 initialized @(2,0)
GPGPU-Sim uArch: core: 14, cta: 1 initialized @(2,0)
GPGPU-Sim uArch: core:  0, cta: 1 initialized @(2,0)
GPGPU-Sim uArch: core:  1, cta: 2 initialized @(3,0)
GPGPU-Sim uArch: core:  2, cta: 2 initialized @(3,0)
GPGPU-Sim uArch: core:  3, cta: 2 initialized @(3,0)
GPGPU-Sim uArch: core:  4, cta: 2 initialized @(3,0)
GPGPU-Sim uArch: core:  5, cta: 2 initialized @(3,0)
GPGPU-Sim uArch: core:  6, cta: 2 initialized @(3,0)
GPGPU-Sim uArch: core:  7, cta: 2 initialized @(3,0)
GPGPU-Sim uArch: core:  8, cta: 2 initialized @(3,0)
GPGPU-Sim uArch: core:  9, cta: 2 initialized @(3,0)
GPGPU-Sim uArch: core: 10, cta: 2 initialized @(3,0)
GPGPU-Sim uArch: core: 11, cta: 2 initialized @(3,0)
GPGPU-Sim uArch: core: 12, cta: 2 initialized @(3,0)
GPGPU-Sim uArch: core: 13, cta: 2 initialized @(3,0)
GPGPU-Sim uArch: core: 14, cta: 2 initialized @(3,0)
GPGPU-Sim uArch: core:  0, cta: 2 initialized @(3,0)
GPGPU-Sim uArch: cycles simulated: 500  inst.: 17280 (ipc=34.6) sim_rate=17280 (inst/sec) elapsed = 0:0:00:01 / Fri Mar 19 14:03:47 2021
GPGPU-Sim PTX: 100000 instructions simulated : ctaid=(42,0,0) tid=(31,0,0)
GPGPU-Sim PTX: 200000 instructions simulated : ctaid=(41,0,0) tid=(63,0,0)
GPGPU-Sim PTX: 300000 instructions simulated : ctaid=(5,0,0) tid=(95,0,0)
GPGPU-Sim uArch: cycles simulated: 2000  inst.: 349664 (ipc=174.8) sim_rate=174832 (inst/sec) elapsed = 0:0:00:02 / Fri Mar 19 14:03:48 2021
GPGPU-Sim PTX: 400000 instructions simulated : ctaid=(7,0,0) tid=(95,0,0)
GPGPU-Sim PTX: 500000 instructions simulated : ctaid=(10,0,0) tid=(95,0,0)
GPGPU-Sim PTX: 600000 instructions simulated : ctaid=(26,0,0) tid=(63,0,0)
GPGPU-Sim PTX: 700000 instructions simulated : ctaid=(43,0,0) tid=(63,0,0)
GPGPU-Sim PTX: 800000 instructions simulated : ctaid=(20,0,0) tid=(63,0,0)
GPGPU-Sim PTX: 900000 instructions simulated : ctaid=(22,0,0) tid=(63,0,0)
GPGPU-Sim PTX: 1000000 instructions simulated : ctaid=(1,0,0) tid=(63,0,0)
GPGPU-Sim PTX: 1100000 instructions simulated : ctaid=(42,0,0) tid=(63,0,0)
GPGPU-Sim PTX: 1200000 instructions simulated : ctaid=(42,0,0) tid=(127,0,0)
GPGPU-Sim PTX: 1300000 instructions simulated : ctaid=(4,0,0) tid=(63,0,0)
GPGPU-Sim PTX: 1400000 instructions simulated : ctaid=(35,0,0) tid=(95,0,0)
GPGPU-Sim PTX: 1500000 instructions simulated : ctaid=(34,0,0) tid=(31,0,0)
GPGPU-Sim PTX: 1600000 instructions simulated : ctaid=(10,0,0) tid=(127,0,0)
GPGPU-Sim uArch: cycles simulated: 4500  inst.: 1613920 (ipc=358.6) sim_rate=537973 (inst/sec) elapsed = 0:0:00:03 / Fri Mar 19 14:03:49 2021
GPGPU-Sim PTX: 1700000 instructions simulated : ctaid=(12,0,0) tid=(95,0,0)
GPGPU-Sim PTX: 1800000 instructions simulated : ctaid=(10,0,0) tid=(31,0,0)
GPGPU-Sim PTX: 1900000 instructions simulated : ctaid=(31,0,0) tid=(127,0,0)
GPGPU-Sim PTX: 2000000 instructions simulated : ctaid=(40,0,0) tid=(63,0,0)
GPGPU-Sim PTX: 2100000 instructions simulated : ctaid=(33,0,0) tid=(31,0,0)
GPGPU-Sim PTX: 2200000 instructions simulated : ctaid=(34,0,0) tid=(127,0,0)
GPGPU-Sim PTX: 2300000 instructions simulated : ctaid=(28,0,0) tid=(31,0,0)
GPGPU-Sim PTX: 2400000 instructions simulated : ctaid=(18,0,0) tid=(63,0,0)
GPGPU-Sim PTX: 2500000 instructions simulated : ctaid=(38,0,0) tid=(95,0,0)
GPGPU-Sim uArch: cycles simulated: 6000  inst.: 2486656 (ipc=414.4) sim_rate=621664 (inst/sec) elapsed = 0:0:00:04 / Fri Mar 19 14:03:50 2021
GPGPU-Sim PTX: 2600000 instructions simulated : ctaid=(42,0,0) tid=(95,0,0)
GPGPU-Sim PTX: 2700000 instructions simulated : ctaid=(30,0,0) tid=(63,0,0)
GPGPU-Sim PTX: 2800000 instructions simulated : ctaid=(4,0,0) tid=(63,0,0)
GPGPU-Sim PTX: 2900000 instructions simulated : ctaid=(14,0,0) tid=(127,0,0)
GPGPU-Sim PTX: 3000000 instructions simulated : ctaid=(24,0,0) tid=(95,0,0)
GPGPU-Sim PTX: 3100000 instructions simulated : ctaid=(17,0,0) tid=(127,0,0)
GPGPU-Sim uArch: cycles simulated: 8500  inst.: 3133472 (ipc=368.6) sim_rate=626694 (inst/sec) elapsed = 0:0:00:05 / Fri Mar 19 14:03:51 2021
GPGPU-Sim PTX: 3200000 instructions simulated : ctaid=(28,0,0) tid=(31,0,0)
GPGPU-Sim PTX: 3300000 instructions simulated : ctaid=(5,0,0) tid=(63,0,0)
GPGPU-Sim PTX: 3400000 instructions simulated : ctaid=(35,0,0) tid=(31,0,0)
GPGPU-Sim PTX: 3500000 instructions simulated : ctaid=(6,0,0) tid=(31,0,0)
GPGPU-Sim PTX: 3600000 instructions simulated : ctaid=(39,0,0) tid=(63,0,0)
GPGPU-Sim PTX: 3700000 instructions simulated : ctaid=(37,0,0) tid=(127,0,0)
GPGPU-Sim PTX: 3800000 instructions simulated : ctaid=(37,0,0) tid=(127,0,0)
GPGPU-Sim uArch: cycles simulated: 11000  inst.: 3782112 (ipc=343.8) sim_rate=630352 (inst/sec) elapsed = 0:0:00:06 / Fri Mar 19 14:03:52 2021
GPGPU-Sim PTX: 3900000 instructions simulated : ctaid=(15,0,0) tid=(127,0,0)
GPGPU-Sim PTX: 4000000 instructions simulated : ctaid=(34,0,0) tid=(127,0,0)
GPGPU-Sim PTX: 4100000 instructions simulated : ctaid=(18,0,0) tid=(31,0,0)
GPGPU-Sim PTX: 4200000 instructions simulated : ctaid=(4,0,0) tid=(31,0,0)
GPGPU-Sim PTX: 4300000 instructions simulated : ctaid=(35,0,0) tid=(63,0,0)
GPGPU-Sim PTX: 4400000 instructions simulated : ctaid=(12,0,0) tid=(31,0,0)
GPGPU-Sim uArch: cycles simulated: 13500  inst.: 4428736 (ipc=328.1) sim_rate=632676 (inst/sec) elapsed = 0:0:00:07 / Fri Mar 19 14:03:53 2021
GPGPU-Sim PTX: 4500000 instructions simulated : ctaid=(32,0,0) tid=(31,0,0)
GPGPU-Sim PTX: 4600000 instructions simulated : ctaid=(8,0,0) tid=(127,0,0)
GPGPU-Sim PTX: 4700000 instructions simulated : ctaid=(24,0,0) tid=(95,0,0)
GPGPU-Sim PTX: 4800000 instructions simulated : ctaid=(42,0,0) tid=(127,0,0)
GPGPU-Sim PTX: 4900000 instructions simulated : ctaid=(12,0,0) tid=(31,0,0)
GPGPU-Sim PTX: 5000000 instructions simulated : ctaid=(20,0,0) tid=(31,0,0)
GPGPU-Sim PTX: 5100000 instructions simulated : ctaid=(3,0,0) tid=(63,0,0)
GPGPU-Sim PTX: 5200000 instructions simulated : ctaid=(35,0,0) tid=(95,0,0)
GPGPU-Sim uArch: cycles simulated: 16500  inst.: 5251648 (ipc=318.3) sim_rate=656456 (inst/sec) elapsed = 0:0:00:08 / Fri Mar 19 14:03:54 2021
GPGPU-Sim PTX: 5300000 instructions simulated : ctaid=(34,0,0) tid=(63,0,0)
GPGPU-Sim PTX: 5400000 instructions simulated : ctaid=(25,0,0) tid=(31,0,0)
GPGPU-Sim PTX: 5500000 instructions simulated : ctaid=(21,0,0) tid=(95,0,0)
GPGPU-Sim PTX: 5600000 instructions simulated : ctaid=(0,0,0) tid=(95,0,0)
GPGPU-Sim PTX: 5700000 instructions simulated : ctaid=(30,0,0) tid=(95,0,0)
GPGPU-Sim PTX: 5800000 instructions simulated : ctaid=(24,0,0) tid=(63,0,0)
GPGPU-Sim PTX: 5900000 instructions simulated : ctaid=(10,0,0) tid=(31,0,0)
GPGPU-Sim uArch: cycles simulated: 19000  inst.: 5897984 (ipc=310.4) sim_rate=655331 (inst/sec) elapsed = 0:0:00:09 / Fri Mar 19 14:03:55 2021
GPGPU-Sim PTX: 6000000 instructions simulated : ctaid=(15,0,0) tid=(127,0,0)
GPGPU-Sim PTX: 6100000 instructions simulated : ctaid=(11,0,0) tid=(95,0,0)
GPGPU-Sim PTX: 6200000 instructions simulated : ctaid=(17,0,0) tid=(63,0,0)
GPGPU-Sim PTX: 6300000 instructions simulated : ctaid=(0,0,0) tid=(31,0,0)
GPGPU-Sim PTX: 6400000 instructions simulated : ctaid=(19,0,0) tid=(63,0,0)
GPGPU-Sim PTX: 6500000 instructions simulated : ctaid=(15,0,0) tid=(63,0,0)
GPGPU-Sim PTX: 6600000 instructions simulated : ctaid=(42,0,0) tid=(95,0,0)
GPGPU-Sim PTX: 6700000 instructions simulated : ctaid=(25,0,0) tid=(95,0,0)
GPGPU-Sim uArch: cycles simulated: 22000  inst.: 6677312 (ipc=303.5) sim_rate=667731 (inst/sec) elapsed = 0:0:00:10 / Fri Mar 19 14:03:56 2021
GPGPU-Sim PTX: 6800000 instructions simulated : ctaid=(12,0,0) tid=(127,0,0)
GPGPU-Sim PTX: 6900000 instructions simulated : ctaid=(34,0,0) tid=(63,0,0)
GPGPU-Sim PTX: 7000000 instructions simulated : ctaid=(0,0,0) tid=(63,0,0)
GPGPU-Sim PTX: 7100000 instructions simulated : ctaid=(11,0,0) tid=(95,0,0)
GPGPU-Sim PTX: 7200000 instructions simulated : ctaid=(44,0,0) tid=(127,0,0)
GPGPU-Sim uArch: cycles simulated: 24000  inst.: 7188480 (ipc=299.5) sim_rate=653498 (inst/sec) elapsed = 0:0:00:11 / Fri Mar 19 14:03:57 2021
GPGPU-Sim PTX: 7300000 instructions simulated : ctaid=(42,0,0) tid=(31,0,0)
GPGPU-Sim PTX: 7400000 instructions simulated : ctaid=(1,0,0) tid=(31,0,0)
GPGPU-Sim PTX: 7500000 instructions simulated : ctaid=(4,0,0) tid=(31,0,0)
GPGPU-Sim PTX: 7600000 instructions simulated : ctaid=(0,0,0) tid=(95,0,0)
GPGPU-Sim PTX: 7700000 instructions simulated : ctaid=(2,0,0) tid=(127,0,0)
GPGPU-Sim PTX: 7800000 instructions simulated : ctaid=(15,0,0) tid=(63,0,0)
GPGPU-Sim PTX: 7900000 instructions simulated : ctaid=(20,0,0) tid=(31,0,0)
GPGPU-Sim PTX: 8000000 instructions simulated : ctaid=(39,0,0) tid=(63,0,0)
GPGPU-Sim uArch: cycles simulated: 27000  inst.: 8016448 (ipc=296.9) sim_rate=668037 (inst/sec) elapsed = 0:0:00:12 / Fri Mar 19 14:03:58 2021
GPGPU-Sim PTX: 8100000 instructions simulated : ctaid=(21,0,0) tid=(127,0,0)
GPGPU-Sim PTX: 8200000 instructions simulated : ctaid=(40,0,0) tid=(63,0,0)
GPGPU-Sim PTX: 8300000 instructions simulated : ctaid=(17,0,0) tid=(63,0,0)
GPGPU-Sim PTX: 8400000 instructions simulated : ctaid=(13,0,0) tid=(95,0,0)
GPGPU-Sim PTX: 8500000 instructions simulated : ctaid=(40,0,0) tid=(63,0,0)
GPGPU-Sim PTX: 8600000 instructions simulated : ctaid=(38,0,0) tid=(31,0,0)
GPGPU-Sim PTX: 8700000 instructions simulated : ctaid=(33,0,0) tid=(31,0,0)
GPGPU-Sim uArch: cycles simulated: 30000  inst.: 8761504 (ipc=292.1) sim_rate=673961 (inst/sec) elapsed = 0:0:00:13 / Fri Mar 19 14:03:59 2021
GPGPU-Sim PTX: 8800000 instructions simulated : ctaid=(0,0,0) tid=(31,0,0)
GPGPU-Sim PTX: 8900000 instructions simulated : ctaid=(31,0,0) tid=(127,0,0)
GPGPU-Sim PTX: 9000000 instructions simulated : ctaid=(8,0,0) tid=(127,0,0)
GPGPU-Sim PTX: 9100000 instructions simulated : ctaid=(2,0,0) tid=(95,0,0)
GPGPU-Sim PTX: 9200000 instructions simulated : ctaid=(10,0,0) tid=(31,0,0)
GPGPU-Sim PTX: 9300000 instructions simulated : ctaid=(12,0,0) tid=(95,0,0)
GPGPU-Sim PTX: 9400000 instructions simulated : ctaid=(35,0,0) tid=(127,0,0)
GPGPU-Sim PTX: 9500000 instructions simulated : ctaid=(26,0,0) tid=(63,0,0)
GPGPU-Sim PTX: 9600000 instructions simulated : ctaid=(42,0,0) tid=(95,0,0)
GPGPU-Sim uArch: cycles simulated: 33000  inst.: 9584576 (ipc=290.4) sim_rate=684612 (inst/sec) elapsed = 0:0:00:14 / Fri Mar 19 14:04:00 2021
GPGPU-Sim PTX: 9700000 instructions simulated : ctaid=(2,0,0) tid=(127,0,0)
GPGPU-Sim PTX: 9800000 instructions simulated : ctaid=(14,0,0) tid=(31,0,0)
GPGPU-Sim PTX: 9900000 instructions simulated : ctaid=(16,0,0) tid=(95,0,0)
GPGPU-Sim PTX: 10000000 instructions simulated : ctaid=(9,0,0) tid=(95,0,0)
GPGPU-Sim PTX: 10100000 instructions simulated : ctaid=(17,0,0) tid=(95,0,0)
GPGPU-Sim PTX: 10200000 instructions simulated : ctaid=(19,0,0) tid=(63,0,0)
GPGPU-Sim PTX: 10300000 instructions simulated : ctaid=(2,0,0) tid=(127,0,0)
GPGPU-Sim uArch: cycles simulated: 36000  inst.: 10343296 (ipc=287.3) sim_rate=689553 (inst/sec) elapsed = 0:0:00:15 / Fri Mar 19 14:04:01 2021
GPGPU-Sim PTX: 10400000 instructions simulated : ctaid=(40,0,0) tid=(31,0,0)
GPGPU-Sim PTX: 10500000 instructions simulated : ctaid=(12,0,0) tid=(127,0,0)
GPGPU-Sim PTX: 10600000 instructions simulated : ctaid=(42,0,0) tid=(31,0,0)
GPGPU-Sim PTX: 10700000 instructions simulated : ctaid=(37,0,0) tid=(95,0,0)
GPGPU-Sim PTX: 10800000 instructions simulated : ctaid=(41,0,0) tid=(127,0,0)
GPGPU-Sim PTX: 10900000 instructions simulated : ctaid=(23,0,0) tid=(127,0,0)
GPGPU-Sim PTX: 11000000 instructions simulated : ctaid=(30,0,0) tid=(31,0,0)
GPGPU-Sim uArch: cycles simulated: 38500  inst.: 10996160 (ipc=285.6) sim_rate=687260 (inst/sec) elapsed = 0:0:00:16 / Fri Mar 19 14:04:02 2021
GPGPU-Sim PTX: 11100000 instructions simulated : ctaid=(35,0,0) tid=(127,0,0)
GPGPU-Sim PTX: 11200000 instructions simulated : ctaid=(8,0,0) tid=(31,0,0)
GPGPU-Sim PTX: 11300000 instructions simulated : ctaid=(3,0,0) tid=(95,0,0)
GPGPU-Sim PTX: 11400000 instructions simulated : ctaid=(44,0,0) tid=(63,0,0)
GPGPU-Sim PTX: 11500000 instructions simulated : ctaid=(32,0,0) tid=(63,0,0)
GPGPU-Sim PTX: 11600000 instructions simulated : ctaid=(25,0,0) tid=(31,0,0)
GPGPU-Sim PTX: 11700000 instructions simulated : ctaid=(13,0,0) tid=(31,0,0)
GPGPU-Sim PTX: 11800000 instructions simulated : ctaid=(22,0,0) tid=(63,0,0)
GPGPU-Sim uArch: cycles simulated: 41500  inst.: 11796480 (ipc=284.3) sim_rate=693910 (inst/sec) elapsed = 0:0:00:17 / Fri Mar 19 14:04:03 2021
GPGPU-Sim PTX: 11900000 instructions simulated : ctaid=(24,0,0) tid=(127,0,0)
GPGPU-Sim PTX: 12000000 instructions simulated : ctaid=(12,0,0) tid=(63,0,0)
GPGPU-Sim PTX: 12100000 instructions simulated : ctaid=(31,0,0) tid=(95,0,0)
GPGPU-Sim PTX: 12200000 instructions simulated : ctaid=(15,0,0) tid=(31,0,0)
GPGPU-Sim PTX: 12300000 instructions simulated : ctaid=(3,0,0) tid=(31,0,0)
GPGPU-Sim PTX: 12400000 instructions simulated : ctaid=(31,0,0) tid=(63,0,0)
GPGPU-Sim uArch: cycles simulated: 44000  inst.: 12441600 (ipc=282.8) sim_rate=691200 (inst/sec) elapsed = 0:0:00:18 / Fri Mar 19 14:04:04 2021
GPGPU-Sim PTX: 12500000 instructions simulated : ctaid=(10,0,0) tid=(127,0,0)
GPGPU-Sim PTX: 12600000 instructions simulated : ctaid=(21,0,0) tid=(31,0,0)
GPGPU-Sim PTX: 12700000 instructions simulated : ctaid=(5,0,0) tid=(95,0,0)
GPGPU-Sim uArch: cycles simulated: 45000  inst.: 12716928 (ipc=282.6) sim_rate=669312 (inst/sec) elapsed = 0:0:00:19 / Fri Mar 19 14:04:05 2021
GPGPU-Sim PTX: 12800000 instructions simulated : ctaid=(24,0,0) tid=(31,0,0)
GPGPU-Sim PTX: 12900000 instructions simulated : ctaid=(0,0,0) tid=(63,0,0)
GPGPU-Sim PTX: 13000000 instructions simulated : ctaid=(39,0,0) tid=(127,0,0)
GPGPU-Sim PTX: 13100000 instructions simulated : ctaid=(10,0,0) tid=(127,0,0)
GPGPU-Sim PTX: 13200000 instructions simulated : ctaid=(27,0,0) tid=(95,0,0)
GPGPU-Sim PTX: 13300000 instructions simulated : ctaid=(34,0,0) tid=(127,0,0)
GPGPU-Sim uArch: cycles simulated: 47500  inst.: 13363200 (ipc=281.3) sim_rate=668160 (inst/sec) elapsed = 0:0:00:20 / Fri Mar 19 14:04:06 2021
GPGPU-Sim PTX: 13400000 instructions simulated : ctaid=(19,0,0) tid=(63,0,0)
GPGPU-Sim PTX: 13500000 instructions simulated : ctaid=(2,0,0) tid=(63,0,0)
GPGPU-Sim PTX: 13600000 instructions simulated : ctaid=(7,0,0) tid=(31,0,0)
GPGPU-Sim PTX: 13700000 instructions simulated : ctaid=(41,0,0) tid=(63,0,0)
GPGPU-Sim PTX: 13800000 instructions simulated : ctaid=(29,0,0) tid=(31,0,0)
GPGPU-Sim PTX: 13900000 instructions simulated : ctaid=(34,0,0) tid=(63,0,0)
GPGPU-Sim PTX: 14000000 instructions simulated : ctaid=(15,0,0) tid=(95,0,0)
GPGPU-Sim uArch: cycles simulated: 50000  inst.: 14008320 (ipc=280.2) sim_rate=667062 (inst/sec) elapsed = 0:0:00:21 / Fri Mar 19 14:04:07 2021
GPGPU-Sim PTX: 14100000 instructions simulated : ctaid=(35,0,0) tid=(127,0,0)
GPGPU-Sim PTX: 14200000 instructions simulated : ctaid=(22,0,0) tid=(63,0,0)
GPGPU-Sim PTX: 14300000 instructions simulated : ctaid=(13,0,0) tid=(127,0,0)
GPGPU-Sim PTX: 14400000 instructions simulated : ctaid=(42,0,0) tid=(127,0,0)
GPGPU-Sim PTX: 14500000 instructions simulated : ctaid=(35,0,0) tid=(63,0,0)
GPGPU-Sim PTX: 14600000 instructions simulated : ctaid=(0,0,0) tid=(63,0,0)
GPGPU-Sim PTX: 14700000 instructions simulated : ctaid=(40,0,0) tid=(31,0,0)
GPGPU-Sim PTX: 14800000 instructions simulated : ctaid=(26,0,0) tid=(63,0,0)
GPGPU-Sim uArch: cycles simulated: 53000  inst.: 14836000 (ipc=279.9) sim_rate=674363 (inst/sec) elapsed = 0:0:00:22 / Fri Mar 19 14:04:08 2021
GPGPU-Sim PTX: 14900000 instructions simulated : ctaid=(10,0,0) tid=(95,0,0)
GPGPU-Sim PTX: 15000000 instructions simulated : ctaid=(8,0,0) tid=(31,0,0)
GPGPU-Sim uArch: cycles simulated: 54500  inst.: 15056736 (ipc=276.3) sim_rate=654640 (inst/sec) elapsed = 0:0:00:23 / Fri Mar 19 14:04:09 2021
GPGPU-Sim uArch: Shader 4 finished CTA #0 (55249,0), 2 CTAs running
GPGPU-Sim uArch: core:  4, cta: 0 initialized @(55250,0)
GPGPU-Sim uArch: Shader 0 finished CTA #0 (55342,0), 2 CTAs running
GPGPU-Sim uArch: core:  0, cta: 0 initialized @(55343,0)
GPGPU-Sim uArch: Shader 1 finished CTA #0 (55351,0), 2 CTAs running
GPGPU-Sim uArch: core:  1, cta: 0 initialized @(55352,0)
GPGPU-Sim uArch: Shader 2 finished CTA #0 (55406,0), 2 CTAs running
GPGPU-Sim uArch: core:  2, cta: 0 initialized @(55407,0)
GPGPU-Sim PTX: 15100000 instructions simulated : ctaid=(25,0,0) tid=(127,0,0)
GPGPU-Sim uArch: Shader 2 finished CTA #2 (55491,0), 2 CTAs running
GPGPU-Sim uArch: core:  2, cta: 2 initialized @(55492,0)
GPGPU-Sim uArch: cycles simulated: 55500  inst.: 15069472 (ipc=271.5) sim_rate=627894 (inst/sec) elapsed = 0:0:00:24 / Fri Mar 19 14:04:10 2021
GPGPU-Sim uArch: Shader 2 finished CTA #1 (55507,0), 2 CTAs running
GPGPU-Sim uArch: core:  2, cta: 1 initialized @(55508,0)
GPGPU-Sim uArch: Shader 10 finished CTA #0 (55560,0), 2 CTAs running
GPGPU-Sim uArch: core: 10, cta: 0 initialized @(55561,0)
GPGPU-Sim uArch: Shader 6 finished CTA #0 (55580,0), 2 CTAs running
GPGPU-Sim uArch: core:  6, cta: 0 initialized @(55581,0)
GPGPU-Sim uArch: Shader 12 finished CTA #0 (55600,0), 2 CTAs running
GPGPU-Sim uArch: core: 12, cta: 0 initialized @(55601,0)
GPGPU-Sim uArch: Shader 0 finished CTA #1 (55602,0), 2 CTAs running
GPGPU-Sim uArch: core:  0, cta: 1 initialized @(55603,0)
GPGPU-Sim uArch: Shader 1 finished CTA #1 (55667,0), 2 CTAs running
GPGPU-Sim uArch: core:  1, cta: 1 initialized @(55668,0)
GPGPU-Sim uArch: Shader 1 finished CTA #2 (55727,0), 2 CTAs running
GPGPU-Sim uArch: core:  1, cta: 2 initialized @(55728,0)
GPGPU-Sim uArch: Shader 14 finished CTA #0 (55794,0), 2 CTAs running
GPGPU-Sim uArch: core: 14, cta: 0 initialized @(55795,0)
GPGPU-Sim uArch: Shader 4 finished CTA #1 (55845,0), 2 CTAs running
GPGPU-Sim uArch: core:  4, cta: 1 initialized @(55846,0)
GPGPU-Sim uArch: Shader 0 finished CTA #2 (55847,0), 2 CTAs running
GPGPU-Sim uArch: core:  0, cta: 2 initialized @(55848,0)
GPGPU-Sim uArch: Shader 10 finished CTA #1 (55857,0), 2 CTAs running
GPGPU-Sim uArch: core: 10, cta: 1 initialized @(55858,0)
GPGPU-Sim uArch: Shader 5 finished CTA #0 (55861,0), 2 CTAs running
GPGPU-Sim uArch: core:  5, cta: 0 initialized @(55862,0)
GPGPU-Sim uArch: Shader 11 finished CTA #0 (55891,0), 2 CTAs running
GPGPU-Sim uArch: core: 11, cta: 0 initialized @(55892,0)
GPGPU-Sim uArch: Shader 8 finished CTA #0 (55944,0), 2 CTAs running
GPGPU-Sim uArch: core:  8, cta: 0 initialized @(55945,0)
GPGPU-Sim uArch: Shader 6 finished CTA #1 (55997,0), 2 CTAs running
GPGPU-Sim uArch: core:  6, cta: 1 initialized @(55998,0)
GPGPU-Sim uArch: Shader 4 finished CTA #2 (56058,0), 2 CTAs running
GPGPU-Sim uArch: core:  4, cta: 2 initialized @(56059,0)
GPGPU-Sim uArch: Shader 10 finished CTA #2 (56075,0), 2 CTAs running
GPGPU-Sim uArch: core: 10, cta: 2 initialized @(56076,0)
GPGPU-Sim uArch: Shader 3 finished CTA #0 (56079,0), 2 CTAs running
GPGPU-Sim uArch: core:  3, cta: 0 initialized @(56080,0)
GPGPU-Sim uArch: Shader 9 finished CTA #0 (56085,0), 2 CTAs running
GPGPU-Sim uArch: core:  9, cta: 0 initialized @(56086,0)
GPGPU-Sim uArch: Shader 12 finished CTA #1 (56087,0), 2 CTAs running
GPGPU-Sim uArch: core: 12, cta: 1 initialized @(56088,0)
GPGPU-Sim uArch: Shader 11 finished CTA #1 (56125,0), 2 CTAs running
GPGPU-Sim uArch: core: 11, cta: 1 initialized @(56126,0)
GPGPU-Sim uArch: Shader 5 finished CTA #1 (56127,0), 2 CTAs running
GPGPU-Sim uArch: core:  5, cta: 1 initialized @(56128,0)
GPGPU-Sim uArch: Shader 6 finished CTA #2 (56128,0), 2 CTAs running
GPGPU-Sim uArch: core:  6, cta: 2 initialized @(56129,0)
GPGPU-Sim uArch: Shader 7 finished CTA #0 (56129,0), 2 CTAs running
GPGPU-Sim uArch: core:  7, cta: 0 initialized @(56130,0)
GPGPU-Sim uArch: Shader 14 finished CTA #1 (56138,0), 2 CTAs running
GPGPU-Sim uArch: core: 14, cta: 1 initialized @(56139,0)
GPGPU-Sim uArch: Shader 14 finished CTA #2 (56164,0), 2 CTAs running
GPGPU-Sim uArch: core: 14, cta: 2 initialized @(56165,0)
GPGPU-Sim uArch: Shader 13 finished CTA #0 (56169,0), 2 CTAs running
GPGPU-Sim uArch: core: 13, cta: 0 initialized @(56170,0)
GPGPU-Sim uArch: Shader 3 finished CTA #1 (56255,0), 2 CTAs running
GPGPU-Sim uArch: core:  3, cta: 1 initialized @(56256,0)
GPGPU-Sim uArch: Shader 9 finished CTA #1 (56261,0), 2 CTAs running
GPGPU-Sim uArch: core:  9, cta: 1 initialized @(56262,0)
GPGPU-Sim uArch: Shader 12 finished CTA #2 (56263,0), 2 CTAs running
GPGPU-Sim uArch: core: 12, cta: 2 initialized @(56264,0)
GPGPU-Sim uArch: Shader 3 finished CTA #2 (56273,0), 2 CTAs running
GPGPU-Sim uArch: core:  3, cta: 2 initialized @(56274,0)
GPGPU-Sim uArch: Shader 8 finished CTA #1 (56285,0), 2 CTAs running
GPGPU-Sim uArch: core:  8, cta: 1 initialized @(56286,0)
GPGPU-Sim uArch: Shader 8 finished CTA #2 (56306,0), 2 CTAs running
GPGPU-Sim uArch: core:  8, cta: 2 initialized @(56307,0)
GPGPU-Sim uArch: Shader 9 finished CTA #2 (56312,0), 2 CTAs running
GPGPU-Sim uArch: core:  9, cta: 2 initialized @(56313,0)
GPGPU-Sim PTX: 15200000 instructions simulated : ctaid=(81,0,0) tid=(127,0,0)
GPGPU-Sim uArch: Shader 11 finished CTA #2 (56364,0), 2 CTAs running
GPGPU-Sim uArch: core: 11, cta: 2 initialized @(56365,0)
GPGPU-Sim uArch: Shader 5 finished CTA #2 (56366,0), 2 CTAs running
GPGPU-Sim uArch: core:  5, cta: 2 initialized @(56367,0)
GPGPU-Sim uArch: Shader 7 finished CTA #1 (56413,0), 2 CTAs running
GPGPU-Sim uArch: core:  7, cta: 1 initialized @(56414,0)
GPGPU-Sim uArch: Shader 13 finished CTA #1 (56451,0), 2 CTAs running
GPGPU-Sim uArch: core: 13, cta: 1 initialized @(56452,0)
GPGPU-Sim uArch: Shader 7 finished CTA #2 (56533,0), 2 CTAs running
GPGPU-Sim uArch: core:  7, cta: 2 initialized @(56534,0)
GPGPU-Sim uArch: Shader 13 finished CTA #2 (56547,0), 2 CTAs running
GPGPU-Sim uArch: core: 13, cta: 2 initialized @(56548,0)
GPGPU-Sim PTX: 15300000 instructions simulated : ctaid=(56,0,0) tid=(31,0,0)
GPGPU-Sim PTX: 15400000 instructions simulated : ctaid=(68,0,0) tid=(63,0,0)
GPGPU-Sim PTX: 15500000 instructions simulated : ctaid=(58,0,0) tid=(95,0,0)
GPGPU-Sim uArch: cycles simulated: 57500  inst.: 15522432 (ipc=270.0) sim_rate=620897 (inst/sec) elapsed = 0:0:00:25 / Fri Mar 19 14:04:11 2021
GPGPU-Sim PTX: 15600000 instructions simulated : ctaid=(81,0,0) tid=(95,0,0)
[...]
traffic_breakdown_coretomem[CONST_ACC_R] = 120 {8:15,}
traffic_breakdown_coretomem[GLOBAL_ACC_R] = 14688 {8:1836,}
traffic_breakdown_coretomem[GLOBAL_ACC_W] = 983040 {40:24576,}
traffic_breakdown_coretomem[INST_ACC_R] = 152576 {8:19072,}
traffic_breakdown_memtocore[CONST_ACC_R] = 1080 {72:15,}
traffic_breakdown_memtocore[GLOBAL_ACC_R] = 249696 {136:1836,}
traffic_breakdown_memtocore[GLOBAL_ACC_W] = 196608 {8:24576,}
traffic_breakdown_memtocore[INST_ACC_R] = 2593792 {136:19072,}
maxmrqlatency = 93 
maxdqlatency = 0 
maxmflatency = 910 
averagemflatency = 385 
max_icnt2mem_latency = 744 
max_icnt2sh_latency = 362727 
mrq_lat_table:3990 	311 	145 	2375 	1965 	498 	68 	0 	0 	0 	0 	0 	0 	0 	0 	0 	0 	0 	0 	0 	0 	0 	0 	0 	0 	0 	0 	0 	0 	0 	0 	0 	
dq_lat_table:0 	0 	0 	0 	0 	0 	0 	0 	0 	0 	0 	0 	0 	0 	0 	0 	0 	0 	0 	0 	0 	0 	0 	0 	0 	0 	0 	0 	0 	0 	0 	0 	
mf_lat_table:0 	0 	0 	0 	0 	0 	0 	828 	21599 	4000 	0 	0 	0 	0 	0 	0 	0 	0 	0 	0 	0 	0 	0 	0 	0 	0 	0 	0 	0 	0 	0 	0 	
icnt2mem_lat_table:0 	0 	0 	20566 	869 	10833 	5773 	4129 	3229 	100 	0 	0 	0 	0 	0 	0 	0 	0 	0 	0 	0 	0 	0 	0 	
icnt2sh_lat_table:0 	0 	0 	587 	605 	642 	17 	0 	0 	0 	0 	0 	0 	0 	0 	2880 	3025 	11375 	7296 	0 	0 	0 	0 	0 	
mf_lat_pw_table:0 	0 	0 	0 	0 	0 	0 	15 	92 	1 	0 	0 	0 	0 	0 	0 	0 	0 	0 	0 	0 	0 	0 	0 	0 	0 	0 	0 	0 	0 	0 	0 	
maximum concurrent accesses to same row:
dram[0]:         8         8         6         4        10        10         0         0         0         0         0         0         0         0         0         0 
dram[1]:         7         8         4         4        10        10         0         0         0         0         0         0         0         0         0         0 
dram[2]:         8         8         4         4        10        12         0         0         0         0         0         0         0         0         0         0 
dram[3]:         8        10         4         4        10        12         0         0         0         0         0         0         0         0         0         0 
dram[4]:         8        10         4         4        10        12         0         0         0         0         0         0         0         0         0         0 
dram[5]:         8         8         4         4        10        12         0         0         0         0         0         0         0         0         0         0 
maximum service time to same row:
dram[0]:    131002    125399    173203    205020    318850    318940      3194      3222     97038     96954    174237    211165     54209     54218     54796     55018 
dram[1]:    130297    124385    172734    204124    319024    319420      3200      3227     97040     96962    174241    211160     54131     54125     54703     54932 
dram[2]:    130019    123908    171990    203546    319159    319462      3203      3221     97047     97013    174709    211171     54257     54137     54925     54999 
dram[3]:    127741    132228    206934    202885    319324    319198      3209      3226     97051     97016    211157    211176     54179     54166     54762     55107 
dram[4]:    127213    131788    206240    202244    319391    319357      3185      3237     97006     96957    211149    211154     54144     54284     54816     55425 
dram[5]:    126069    121786    205725    201491    318947    319059      3191      3241     97010     96968    211153    211160     54149     54154     54838     54991 
average row accesses per activate:
dram[0]: 84.500000 84.000000 83.000000 82.000000 60.000000 60.000000 32.000000 32.000000 32.000000 32.000000 32.000000 32.000000 72.000000 70.000000 160.000000 160.000000 
dram[1]: 83.500000 84.000000 82.000000 82.000000 60.000000 60.000000 32.000000 32.000000 32.000000 32.000000 32.000000 32.000000 72.000000 72.000000 159.000000 160.000000 
dram[2]: 84.000000 84.000000 82.000000 82.000000 60.000000 61.000000 32.000000 32.000000 32.000000 32.000000 32.000000 32.000000 70.000000 71.000000 160.000000 160.000000 
dram[3]: 84.000000 85.000000 82.000000 82.000000 60.000000 56.000000 32.000000 32.000000 32.000000 32.000000 32.000000 32.000000 70.000000 80.000000 157.000000 160.000000 
dram[4]: 84.000000 85.000000 82.000000 82.000000 60.000000 56.000000 32.000000 32.000000 32.000000 32.000000 32.000000 32.000000 70.000000 80.000000 157.000000 160.000000 
dram[5]: 84.000000 84.000000 82.000000 82.000000 60.000000 56.000000 32.000000 32.000000 32.000000 32.000000 32.000000 32.000000 72.000000 80.000000 160.000000 160.000000 
average row locality = 9352/132 = 70.848488
number of total memory accesses made:
dram[0]:         0         0         0         0         0         0         0         0         0         0         0         0         0         0         0         0 
dram[1]:         0         0         0         0         0         0         0         0         0         0         0         0         0         0         0         0 
dram[2]:         0         0         0         0         0         0         0         0         0         0         0         0         0         0         0         0 
dram[3]:         0         0         0         0         0         0         0         0         0         0         0         0         0         0         0         0 
dram[4]:         0         0         0         0         0         0         0         0         0         0         0         0         0         0         0         0 
dram[5]:         0         0         0         0         0         0         0         0         0         0         0         0         0         0         0         0 
total accesses: 0
min_bank_accesses = 0!
min_chip_accesses = 0!
number of total read accesses:
dram[0]:        41        40        38        36        32        32        32        32        32        32        32        32        32        32        32        32 
dram[1]:        39        40        36        36        32        32        32        32        32        32        32        32        32        32        32        32 
dram[2]:        40        40        36        36        32        34        32        32        32        32        32        32        32        31        32        32 
dram[3]:        40        42        36        36        32        32        32        32        32        32        32        32        32        32        32        32 
dram[4]:        40        42        36        36        32        32        32        32        32        32        32        32        32        32        32        32 
dram[5]:        40        40        36        36        32        32        32        32        32        32        32        32        32        32        32        32 
total reads: 3223
bank skew: 42/31 = 1.35
chip skew: 539/535 = 1.01
number of total write accesses:
dram[0]:       128       128       128       128        88        88         0         0         0         0         0         0        40        38       128       128 
dram[1]:       128       128       128       128        88        88         0         0         0         0         0         0        40        40       127       128 
dram[2]:       128       128       128       128        88        88         0         0         0         0         0         0        38        40       128       128 
dram[3]:       128       128       128       128        88        80         0         0         0         0         0         0        38        48       125       128 
dram[4]:       128       128       128       128        88        80         0         0         0         0         0         0        38        48       125       128 
dram[5]:       128       128       128       128        88        80         0         0         0         0         0         0        40        48       128       128 
total reads: 6129
min_bank_accesses = 0!
chip skew: 1024/1019 = 1.00
average mf latency per bank:
dram[0]:       1293      1233      1100      1070       999       940       364       357       335       350       345       366      1078      1244      1392      1485
dram[1]:       1303      1218      1177      1038      1014       940       304       295       288       289       308       311      1154      1227      1411      1445
dram[2]:       1342      1246      1107      1280      1164      1070       364       368       335       351       335       379      1290      1021      1523      1452
dram[3]:       1166      1120       999      1043       945       895       299       300       282       290       291       289      1231      1082      1415      1414
dram[4]:       1160      1295      1060      1233       937      1009       356       351       345       339       330       370      1012      1320      1322      1671
dram[5]:       1193      1090       959      1050       913       928       283       285       290       283       289       292      1148      1262      1416      1353
maximum mf latency per bank:
dram[0]:        706       790       580       525       472       477       364       352       305       326       394       426       726       777       739       832
dram[1]:        910       704       822       740       524       440       368       356       315       330       493       368       613       700       814       796
dram[2]:        880       667       523       804       625       593       364       387       326       317       402       439       759       626       878       818
dram[3]:        766       755       626       529       464       577       368       379       319       316       376       383       787       774       767       767
dram[4]:        743       888       576       862       410       576       382       358       330       309       340       546       561       746       757       762
dram[5]:        844       605       676       656       456       454       368       350       334       314       368       348       828       711       743       801
Memory Partition 0: 
Cache L2_bank_000:
MSHR contents

Cache L2_bank_001:
MSHR contents

In Dram Latency Queue (total = 0): 
DRAM[0]: 16 bks, busW=4 BL=8 CL=12, tRRD=2 tCCD=6, tRCD=12 tRAS=28 tRP=12 tRC=40
n_cmd=478800 n_nop=476670 n_act=23 n_pre=7 n_req=1561 n_rd=1078 n_write=1022 bw_util=0.008772
n_activity=13612 dram_eff=0.3086
bk0: 82a 477630i bk1: 80a 477652i bk2: 76a 477596i bk3: 72a 477633i bk4: 64a 477977i bk5: 64a 477901i bk6: 64a 478516i bk7: 64a 478505i bk8: 64a 478635i bk9: 64a 478581i bk10: 64a 478634i bk11: 64a 478586i bk12: 64a 478320i bk13: 64a 478278i bk14: 64a 477678i bk15: 64a 477678i 
dram_util_bins: 0 0 0 0 0 0 0 0 0 0
dram_eff_bins: 0 0 0 0 0 0 0 0 0 0
mrqq: max=16 avg=0.0400877
Memory Partition 1: 
Cache L2_bank_002:
MSHR contents

Cache L2_bank_003:
MSHR contents

In Dram Latency Queue (total = 0): 
DRAM[1]: 16 bks, busW=4 BL=8 CL=12, tRRD=2 tCCD=6, tRCD=12 tRAS=28 tRP=12 tRC=40
n_cmd=478800 n_nop=476679 n_act=22 n_pre=6 n_req=1558 n_rd=1070 n_write=1023 bw_util=0.008743
n_activity=13500 dram_eff=0.3101
bk0: 78a 477660i bk1: 80a 477611i bk2: 72a 477600i bk3: 72a 477623i bk4: 64a 477955i bk5: 64a 477907i bk6: 64a 478519i bk7: 64a 478501i bk8: 64a 478631i bk9: 64a 478591i bk10: 64a 478610i bk11: 64a 478547i bk12: 64a 478316i bk13: 64a 478304i bk14: 64a 477650i bk15: 64a 477690i 
dram_util_bins: 0 0 0 0 0 0 0 0 0 0
dram_eff_bins: 0 0 0 0 0 0 0 0 0 0
mrqq: max=13 avg=0.0439891
Memory Partition 2: 
Cache L2_bank_004:
MSHR contents

Cache L2_bank_005:
MSHR contents

In Dram Latency Queue (total = 0): 
DRAM[2]: 16 bks, busW=4 BL=8 CL=12, tRRD=2 tCCD=6, tRCD=12 tRAS=28 tRP=12 tRC=40
n_cmd=478800 n_nop=476676 n_act=22 n_pre=6 n_req=1559 n_rd=1074 n_write=1022 bw_util=0.008755
n_activity=13447 dram_eff=0.3117
bk0: 80a 477592i bk1: 80a 477577i bk2: 72a 477617i bk3: 72a 477614i bk4: 64a 477969i bk5: 68a 477909i bk6: 64a 478520i bk7: 64a 478497i bk8: 64a 478638i bk9: 64a 478592i bk10: 64a 478639i bk11: 64a 478589i bk12: 64a 478373i bk13: 62a 478319i bk14: 64a 477599i bk15: 64a 477636i 
dram_util_bins: 0 0 0 0 0 0 0 0 0 0
dram_eff_bins: 0 0 0 0 0 0 0 0 0 0
mrqq: max=14 avg=0.0461905
Memory Partition 3: 
Cache L2_bank_006:
MSHR contents

Cache L2_bank_007:
MSHR contents

In Dram Latency Queue (total = 0): 
DRAM[3]: 16 bks, busW=4 BL=8 CL=12, tRRD=2 tCCD=6, tRCD=12 tRAS=28 tRP=12 tRC=40
n_cmd=478800 n_nop=476677 n_act=22 n_pre=6 n_req=1557 n_rd=1076 n_write=1019 bw_util=0.008751
n_activity=13528 dram_eff=0.3097
bk0: 80a 477650i bk1: 84a 477623i bk2: 72a 477698i bk3: 72a 477670i bk4: 64a 477966i bk5: 64a 477947i bk6: 64a 478519i bk7: 64a 478491i bk8: 64a 478627i bk9: 64a 478589i bk10: 64a 478610i bk11: 64a 478617i bk12: 64a 478306i bk13: 64a 478264i bk14: 64a 477668i bk15: 64a 477684i 
dram_util_bins: 0 0 0 0 0 0 0 0 0 0
dram_eff_bins: 0 0 0 0 0 0 0 0 0 0
mrqq: max=14 avg=0.0430931
Memory Partition 4: 
Cache L2_bank_008:
MSHR contents

Cache L2_bank_009:
MSHR contents

In Dram Latency Queue (total = 0): 
DRAM[4]: 16 bks, busW=4 BL=8 CL=12, tRRD=2 tCCD=6, tRCD=12 tRAS=28 tRP=12 tRC=40
n_cmd=478800 n_nop=476677 n_act=22 n_pre=6 n_req=1557 n_rd=1076 n_write=1019 bw_util=0.008751
n_activity=13483 dram_eff=0.3108
bk0: 80a 477654i bk1: 84a 477637i bk2: 72a 477613i bk3: 72a 477538i bk4: 64a 477986i bk5: 64a 477911i bk6: 64a 478517i bk7: 64a 478532i bk8: 64a 478619i bk9: 64a 478566i bk10: 64a 478630i bk11: 64a 478608i bk12: 64a 478289i bk13: 64a 478213i bk14: 64a 477666i bk15: 64a 477602i 
dram_util_bins: 0 0 0 0 0 0 0 0 0 0
dram_eff_bins: 0 0 0 0 0 0 0 0 0 0
mrqq: max=16 avg=0.0452047
Memory Partition 5: 
Cache L2_bank_010:
MSHR contents

Cache L2_bank_011:
MSHR contents

In Dram Latency Queue (total = 0): 
DRAM[5]: 16 bks, busW=4 BL=8 CL=12, tRRD=2 tCCD=6, tRCD=12 tRAS=28 tRP=12 tRC=40
n_cmd=478800 n_nop=476676 n_act=22 n_pre=6 n_req=1560 n_rd=1072 n_write=1024 bw_util=0.008755
n_activity=13553 dram_eff=0.3093
bk0: 80a 477670i bk1: 80a 477604i bk2: 72a 477617i bk3: 72a 477655i bk4: 64a 477975i bk5: 64a 477965i bk6: 64a 478530i bk7: 64a 478522i bk8: 64a 478622i bk9: 64a 478582i bk10: 64a 478629i bk11: 64a 478622i bk12: 64a 478336i bk13: 64a 478236i bk14: 64a 477718i bk15: 64a 477663i 
dram_util_bins: 0 0 0 0 0 0 0 0 0 0
dram_eff_bins: 0 0 0 0 0 0 0 0 0 0
mrqq: max=11 avg=0.0395551

========= L2 cache stats =========
L2_cache_bank[0]: Access = 4028, Miss = 271, Miss_rate = 0.067, Pending_hits = 434, Reservation_fails = 13864
L2_cache_bank[1]: Access = 3764, Miss = 268, Miss_rate = 0.071, Pending_hits = 419, Reservation_fails = 14714
L2_cache_bank[2]: Access = 3584, Miss = 267, Miss_rate = 0.074, Pending_hits = 416, Reservation_fails = 13880
L2_cache_bank[3]: Access = 3712, Miss = 268, Miss_rate = 0.072, Pending_hits = 420, Reservation_fails = 13354
L2_cache_bank[4]: Access = 3764, Miss = 268, Miss_rate = 0.071, Pending_hits = 419, Reservation_fails = 13887
L2_cache_bank[5]: Access = 3771, Miss = 269, Miss_rate = 0.071, Pending_hits = 424, Reservation_fails = 13730
L2_cache_bank[6]: Access = 3712, Miss = 268, Miss_rate = 0.072, Pending_hits = 415, Reservation_fails = 13509
L2_cache_bank[7]: Access = 3968, Miss = 270, Miss_rate = 0.068, Pending_hits = 426, Reservation_fails = 13363
L2_cache_bank[8]: Access = 3759, Miss = 268, Miss_rate = 0.071, Pending_hits = 422, Reservation_fails = 13568
L2_cache_bank[9]: Access = 4013, Miss = 270, Miss_rate = 0.067, Pending_hits = 430, Reservation_fails = 14171
L2_cache_bank[10]: Access = 3712, Miss = 268, Miss_rate = 0.072, Pending_hits = 420, Reservation_fails = 13913
L2_cache_bank[11]: Access = 3712, Miss = 268, Miss_rate = 0.072, Pending_hits = 420, Reservation_fails = 13879
L2_total_cache_accesses = 45499
L2_total_cache_misses = 3223
L2_total_cache_miss_rate = 0.0708
L2_total_cache_pending_hits = 5065
L2_total_cache_reservation_fails = 165832
L2_total_cache_breakdown:
	L2_cache_stats_breakdown[GLOBAL_ACC_R][HIT] = 277
	L2_cache_stats_breakdown[GLOBAL_ACC_R][HIT_RESERVED] = 22
	L2_cache_stats_breakdown[GLOBAL_ACC_R][MISS] = 1537
	L2_cache_stats_breakdown[CONST_ACC_R][HIT] = 11
	L2_cache_stats_breakdown[CONST_ACC_R][HIT_RESERVED] = 3
	L2_cache_stats_breakdown[CONST_ACC_R][MISS] = 1
	L2_cache_stats_breakdown[CONST_ACC_R][RESERVATION_FAIL] = 100
	L2_cache_stats_breakdown[GLOBAL_ACC_W][HIT] = 18447
	L2_cache_stats_breakdown[GLOBAL_ACC_W][HIT_RESERVED] = 4593
	L2_cache_stats_breakdown[GLOBAL_ACC_W][MISS] = 1536
	L2_cache_stats_breakdown[GLOBAL_ACC_W][RESERVATION_FAIL] = 152055
	L2_cache_stats_breakdown[INST_ACC_R][HIT] = 18476
	L2_cache_stats_breakdown[INST_ACC_R][HIT_RESERVED] = 447
	L2_cache_stats_breakdown[INST_ACC_R][MISS] = 149
	L2_cache_stats_breakdown[INST_ACC_R][RESERVATION_FAIL] = 13677
L2_cache_data_port_util = 0.021
L2_cache_fill_port_util = 0.003

icnt_total_pkts_mem_to_simt=129161
icnt_total_pkts_simt_to_mem=70075
LD_mem_lat_dist  0 0 0 0 0 0 0 0 0 0 0 0 0 0 0 0 0 0 0 0 0 0 0 0 0 0 0
ST_mem_lat_dist  0 0 0 0 0 0 0 0 0 0 0 0 0 0 0 0 0 0 0 0 0 0 0 0 0 0 0
----------------------------Interconnect-DETAILS--------------------------------
Class 0:
Packet latency average = 23.92
	minimum = 6
	maximum = 488
Network latency average = 17.0801
	minimum = 6
	maximum = 415
Slowest packet = 5713
Flit latency average = 14.4148
	minimum = 6
	maximum = 414
Slowest flit = 42152
Fragmentation average = 0.0182751
	minimum = 0
	maximum = 172
Injected packet rate average = 0.00929153
	minimum = 0.00783507 (at node 11)
	maximum = 0.0111047 (at node 15)
Accepted packet rate average = 0.00929153
	minimum = 0.00783507 (at node 11)
	maximum = 0.0111047 (at node 15)
Injected flit rate average = 0.0203434
	minimum = 0.0120696 (at node 11)
	maximum = 0.0328566 (at node 15)
Accepted flit rate average= 0.0203434
	minimum = 0.0155268 (at node 17)
	maximum = 0.0250904 (at node 12)
Injected packet length average = 2.18945
Accepted packet length average = 2.18945
Total in-flight flits = 0 (0 measured)
====== Overall Traffic Statistics ======
====== Traffic class 0 ======
Packet latency average = 23.92 (1 samples)
	minimum = 6 (1 samples)
	maximum = 488 (1 samples)
Network latency average = 17.0801 (1 samples)
	minimum = 6 (1 samples)
	maximum = 415 (1 samples)
Flit latency average = 14.4148 (1 samples)
	minimum = 6 (1 samples)
	maximum = 414 (1 samples)
Fragmentation average = 0.0182751 (1 samples)
	minimum = 0 (1 samples)
	maximum = 172 (1 samples)
Injected packet rate average = 0.00929153 (1 samples)
	minimum = 0.00783507 (1 samples)
	maximum = 0.0111047 (1 samples)
Accepted packet rate average = 0.00929153 (1 samples)
	minimum = 0.00783507 (1 samples)
	maximum = 0.0111047 (1 samples)
Injected flit rate average = 0.0203434 (1 samples)
	minimum = 0.0120696 (1 samples)
	maximum = 0.0328566 (1 samples)
Accepted flit rate average = 0.0203434 (1 samples)
	minimum = 0.0155268 (1 samples)
	maximum = 0.0250904 (1 samples)
Injected packet size average = 2.18945 (1 samples)
Accepted packet size average = 2.18945 (1 samples)
Hops average = 1 (1 samples)
----------------------------END-of-Interconnect-DETAILS-------------------------


gpgpu_simulation_time = 0 days, 0 hrs, 3 min, 0 sec (180 sec)
gpgpu_simulation_rate = 714615 (inst/sec)
gpgpu_simulation_rate = 2015 (cycle/sec)
GPGPU-Sim: synchronize waiting for inactive GPU simulation
GPGPU-Sim API: Stream Manager State
GPGPU-Sim: detected inactive GPU simulation thread

== GPU Timing ==
GPU init                 : 0.005000
Host input buffer alloc  : 0.007000
-----
Host output buffer alloc : 0.002000
GPU memory alloc         : 0.002000
Data copy in             : 6.693000
Kernel execution         : 178852.625000
Data copy out            : 3.441000
Last hasing stage        : 0.000000
GPU Proc. Time (gpu init and input alloc are not included):  178862.765625 

== CPU Execution Context ==
Threads       : 128
Blocks        : 384
Total Threads : 49152
Total Size    : 196656
Chunk Size    : 52
Padding       : 0

CPU Processing time(ms):    12.014000 

Output size: 196608
Test PASSED
CPU GPU
FD FD
DD DD
2 2
F9 F9
